geometry optimzed in LAMMPS
_audit_creation_date              2020-12-01 
_audit_creation_method            'lammps2cif' 
_symmetry_space_group_name_H-M    'P1' 
_symmetry_Int_Tables_number       1 
_symmetry_cell_setting            triclinic 
loop_ 
_symmetry_equiv_pos_as_xyz 
  x,y,z 
_cell_length_a                    35.80333574 
_cell_length_b                    35.85998437687901 
_cell_length_c                    27.7623465867074 
_cell_angle_alpha                 90.27828305197798 
_cell_angle_beta                  88.93798943427497 
_cell_angle_gamma                 120.11100729739947 
loop_ 
_atom_site_label 
_atom_site_type_symbol 
_atom_site_fract_x 
_atom_site_fract_y 
_atom_site_fract_z 
_atom_site_charge 
C1          C  0.33276791  0.17913718  0.02535787     0.30900
C2          C  0.33431223  0.16684603  0.42255507     0.30900
C3          C  0.35803471  0.15972963  0.00173760    -0.05300
C4          C  0.29059023  0.15628419  0.99763644    -0.06100
C5          C  0.35478892  0.22395026  0.00097763    -0.06000
C6          C  0.36097040  0.14986742  0.44778055    -0.05300
C7          C  0.29148995  0.14343441  0.45262116    -0.06100
C8          C  0.35533264  0.21312751  0.44390509    -0.06000
C9          C  0.38197615  0.12840426  0.43273380    -0.31400
N10         N  0.39357732  0.12686022  0.98127587     0.15100
C11         C  0.37848209  0.13934420  0.01921292    -0.31400
H12         H  0.38117033  0.13284654  0.05665618     0.17100
C13         C  0.24759940  0.12003534  0.44419625    -0.30300
N14         N  0.22594983  0.10928862  0.48714134     0.13900
C15         C  0.24787591  0.13506126  0.01042626    -0.30300
C16         C  0.37701925  0.25516512  0.42619348    -0.30600
N17         N  0.39001486  0.29281065  0.97912671     0.14400
H18         H  0.38269291  0.26496895  0.38874905     0.17000
C19         C  0.37387062  0.26564053  0.01732931    -0.30600
H20         H  0.37731166  0.27588345  0.05449751     0.17000
H21         H  0.23457881  0.12894595  0.04677343     0.17000
H22         H  0.38310085  0.11746735  0.39662624     0.17100
H23         H  0.23175281  0.11227343  0.41004330     0.17000
C24         C  0.31246240  0.14899895  0.17319078     0.30900
C25         C  0.30724863  0.14485783  0.27517306     0.30900
C26         C  0.33148564  0.12400959  0.19896567    -0.05300
C27         C  0.33506326  0.19253256  0.20112456    -0.06100
C28         C  0.26661412  0.12718428  0.19682585    -0.06000
C29         C  0.32833332  0.12170824  0.24988321    -0.05300
C30         C  0.33218545  0.18937600  0.25213195    -0.06100
C31         C  0.26436494  0.12572909  0.24772555    -0.06000
C32         C  0.34552353  0.09719037  0.26463834    -0.31400
N33         N  0.35968338  0.08515608  0.22516042     0.15100
C34         C  0.35184810  0.10151487  0.18500908    -0.31400
H35         H  0.36071364  0.09768414  0.14859998     0.17100
C36         C  0.35219892  0.22981846  0.27074904    -0.30300
N37         N  0.36715348  0.25785343  0.23372318     0.13900
C38         C  0.35689071  0.23638715  0.19132144    -0.30300
C39         C  0.22138707  0.10473647  0.26080540    -0.30600
N40         N  0.19739616  0.09286471  0.22044020     0.14400
H41         H  0.20820330  0.09738527  0.29717271     0.17000
C42         C  0.22432004  0.10590043  0.18111366    -0.30600
H43         H  0.21396416  0.10001378  0.14410723     0.17000
H44         H  0.36446009  0.25250828  0.15699602     0.17000
H45         H  0.34889344  0.08979982  0.30151837     0.17100
H46         H  0.35421295  0.23852991  0.30835393     0.17000
C47         C  0.16684612  0.34783541  0.08245025     0.29100
C48         C  0.16057729  0.32986868  0.47897232     0.30900
C49         C  0.14505136  0.37059008  0.05784341    -0.05300
C50         C  0.21246858  0.37178466  0.05814370    -0.06100
C51         C  0.14660016  0.30442317  0.05452083    -0.06000
C52         C  0.13752755  0.35017840  0.50552704    -0.05300
C53         C  0.20553352  0.35443288  0.50177135    -0.06100
C54         C  0.14142185  0.28618000  0.50568396    -0.06000
C55         C  0.11470688  0.36902673  0.49068947    -0.31400
N56         N  0.11166572  0.40503717  0.03236741     0.15100
C57         C  0.12319467  0.39171923  0.07241507    -0.31400
H58         H  0.11636292  0.39708723  0.10911997     0.17100
C59         C  0.24680986  0.37587565  0.48307261    -0.30300
N60         N  0.28134961  0.40649429  0.03385258     0.13900
C61         C  0.25477818  0.39153083  0.07334691    -0.30300
C62         C  0.12269771  0.24348945  0.49330541    -0.30600
N63         N  0.11682239  0.23872283  0.02318640     0.14400
H64         H  0.11697799  0.23022715  0.45743104     0.17000
C65         C  0.12603705  0.26085002  0.06517369    -0.30600
H66         H  0.11836802  0.24571176  0.10024949     0.17000
H67         H  0.26542459  0.39448868  0.11011461     0.17000
H68         H  0.10863788  0.37368063  0.45375484     0.17100
H69         H  0.25603071  0.37988833  0.44528583     0.17000
C70         C  0.14212227  0.31668253  0.22918928     0.30900
C71         C  0.13935307  0.31037406  0.33082149     0.30900
C72         C  0.12158637  0.33916328  0.25709753    -0.05300
C73         C  0.11698140  0.27114700  0.25152719    -0.06100
C74         C  0.18537908  0.33487209  0.25488859    -0.06000
C75         C  0.11944095  0.33586605  0.30811092    -0.05300
C76         C  0.11592725  0.26764292  0.30210360    -0.06100
C77         C  0.18417472  0.33213871  0.30583409    -0.06000
C78         C  0.09646550  0.35538832  0.32380297    -0.31400
N79         N  0.08627769  0.37082640  0.28448348     0.15100
C80         C  0.10126689  0.36102696  0.24408434    -0.31400
H81         H  0.09629402  0.36807063  0.20764193     0.17100
C82         C  0.09451259  0.22394377  0.31268698    -0.30300
N83         N  0.08186089  0.20166768  0.27070339     0.13900
C84         C  0.09546114  0.22995555  0.23344573    -0.30300
C85         C  0.22625088  0.35336630  0.32074927    -0.30600
N86         N  0.25204976  0.36799277  0.28093223     0.14400
H87         H  0.23739381  0.35836991  0.35742357     0.17000
C88         C  0.22783870  0.35703121  0.24086604    -0.30600
H89         H  0.24047845  0.36566374  0.20438555     0.17000
H90         H  0.09140708  0.22090302  0.19584477     0.17000
H91         H  0.08737015  0.35768295  0.36061095     0.17100
H92         H  0.08915331  0.20934971  0.34803063     0.17000
O93         O  0.45237500  0.03791354  0.03556014    -0.87500
C94         C  0.44987828  0.45570482  0.42263821     0.88600
Mg95       Mg  0.50006028  0.10491721  0.03585676     1.58100
O96         O  0.48256892  0.44152967  0.03882177    -0.87200
O97         O  0.43019956  0.48334354  0.08506417    -0.74500
C98         C  0.18024973  0.08930256  0.49330360     0.93600
O99         O  0.47510865  0.05139829  0.42462268    -0.74400
O100        O  0.16236469  0.11144523  0.48452077    -0.81900
Mg101      Mg  0.40763797  0.49913334  0.46369095     1.58000
C102        C  0.09025034  0.42963929  0.02938173     0.93500
O103        O  0.34870335  0.46581274  0.01656953    -0.80100
H104        H  0.48024251  0.44235573  0.10965067    -0.05500
C105        C  0.08026652  0.00388823  0.43140209     0.88500
O106        O  0.04614003  0.09638063  0.07623570    -0.74600
O107        O  0.42702922  0.45106975  0.45963725    -0.87400
O108        O  0.05157207  0.41084610  0.01452906    -0.80200
C109        C  0.41531933  0.32886467  0.46422545     0.93600
C110        C  0.32746802  0.42715750  0.03219886     0.93500
Mg111      Mg  0.09530164  0.02353979  0.03111485     1.58000
O112        O  0.15898730  0.05034289  0.50817526    -0.80100
O113        O  0.03659420  0.48371588  0.08000525    -0.74400
O114        O  0.39536276  0.34855759  0.47641044    -0.80200
O115        O  0.39558233  0.05516671  0.46500651    -0.81900
O116        O  0.10960401  0.17315404  0.00038841    -0.80200
C117        C  0.99717218  0.45552688  0.07518080     0.87900
O118        O  0.07903401  0.07317238  0.02880421    -0.87400
O119        O  0.06181350  0.48429603  0.46944794    -0.87500
O120        O  0.08834488  0.04236124  0.42590815    -0.74500
Mg121      Mg  0.41630549  0.42402729  0.03988650     1.58000
O122        O  0.45632609  0.34819037  0.46024968    -0.81900
H123        H  0.44092193  0.04289858  0.10365446    -0.05600
O124        O  0.02596631  0.07692011  0.47050818    -0.87200
H125        H  0.03679251  0.09862253  0.40287377    -0.05500
H126        H  0.09518253  0.08768167  0.09755178    -0.05600
C127        C  0.51390421  0.07741021  0.43539620     0.87900
C128        C  0.44230898  0.52265686  0.07666491     0.88500
C129        C  0.07494593  0.08634562  0.06839824     0.88500
H130        H  0.08527387  0.48814581  0.40307208    -0.05600
O131        O  0.47729991  0.44338653  0.42017939    -0.74600
Mg132      Mg  0.09258723  0.09381076  0.47800296     1.58000
H133        H  0.44716075  0.47249717  0.39219218    -0.05600
C134        C  0.41866382  0.09497256  0.47511391     0.93500
O135        O  0.05127450  0.17502788  0.02782315    -0.81900
C136        C  0.09154564  0.19328328  0.01799384     0.93600
O137        O  0.34544059  0.40506137  0.04074589    -0.81900
Mg138      Mg  0.01042868  0.42017239  0.46079544     1.58200
O139        O  0.45583817  0.11088358  0.49382233    -0.80200
O140        O  0.11201239  0.47027762  0.03522777    -0.81900
O141        O  0.99351897  0.42054840  0.22281185    -0.87500
C142        C  0.40436445  0.40876605  0.33005510     0.88600
Mg143      Mg  0.05970699  0.47084666  0.22091783     1.58100
O144        O  0.39793398  0.45465475  0.22446153    -0.87200
O145        O  0.43728587  0.39656138  0.17987370    -0.74500
C146        C  0.06210202  0.15600400  0.26482866     0.93600
O147        O  0.01084814  0.44635700  0.33124574    -0.74400
O148        O  0.08430810  0.13811165  0.27296546    -0.81900
Mg149      Mg  0.46875183  0.38820771  0.29304146     1.58000
C150        C  0.38480916  0.06449368  0.22789203     0.93500
O151        O  0.42381411  0.32352537  0.25731283    -0.80100
H152        H  0.37944293  0.44851033  0.15645888    -0.05500
C153        C  0.96889372  0.04587756  0.31530862     0.88500
O154        O  0.04297338  0.00963485  0.16966590    -0.74600
O155        O  0.41813839  0.40355299  0.29125056    -0.87400
O156        O  0.36698936  0.02609114  0.24442497    -0.80200
C157        C  0.29771686  0.39241417  0.27951043     0.93600
C158        C  0.38602989  0.30283546  0.23992793     0.93500
Mg159      Mg  0.97770239  0.06951448  0.21188842     1.58000
O160        O  0.02389158  0.13507812  0.24840200    -0.80100
O161        O  0.42978808  0.00894096  0.17523191    -0.74400
O162        O  0.31806571  0.37334265  0.26629210    -0.80200
O163        O  0.02048577  0.36891864  0.29078367    -0.81900
O164        O  0.13016516  0.08613659  0.23590991    -0.80200
C165        C  0.40286478  0.96978752  0.18359800     0.87900
O166        O  0.02722143  0.05282366  0.21059901    -0.87400
O167        O  0.45228693  0.03135238  0.28222974    -0.87500
O168        O  0.00802366  0.05733288  0.32304310    -0.74500
Mg169      Mg  0.38099099  0.38894667  0.22743150     1.58000
O170        O  0.31599879  0.43285475  0.28615182    -0.81900
H171        H  0.99652359  0.40432916  0.15476498    -0.05600
O172        O  0.04764147  0.00154669  0.27871450    -0.87200
H173        H  0.05593241  0.01124134  0.34824197    -0.05500
H174        H  0.01996769  0.04503581  0.14006949    -0.05600
C175        C  0.03717289  0.48565064  0.32171879     0.87900
C176        C  0.47564277  0.40541589  0.18798741     0.88500
C177        C  0.03052971  0.03704831  0.17225227     0.88500
H178        H  0.44905637  0.04858148  0.34882647    -0.05600
O179        O  0.39417868  0.43775807  0.33523052    -0.74600
Mg180      Mg  0.06556961  0.06785000  0.27481538     1.58000
H181        H  0.40210608  0.38907958  0.36057926    -0.05600
C182        C  0.06096218  0.39129027  0.28248063     0.93500
O183        O  0.13279206  0.02735110  0.21563616    -0.81900
C184        C  0.15113783  0.06787105  0.22192628     0.93600
O185        O  0.36333243  0.32003172  0.23103264    -0.81900
Mg186      Mg  0.38533085  0.98135269  0.28470488     1.58200
O187        O  0.07900912  0.42965254  0.26578709    -0.80200
O188        O  0.42500111  0.08653634  0.21842128    -0.81900
C189        C  0.16076661  0.33470274  0.42185512    -0.15600
C190        C  0.13748740  0.30404082  0.38762782    -0.30700
H191        H  0.18085798  0.36736901  0.40837967     0.13500
H192        H  0.11587127  0.27175558  0.40049174     0.14000
C193        C  0.14133571  0.31671936  0.17190416    -0.15600
C194        C  0.16691722  0.34939823  0.13985358    -0.30700
H195        H  0.11696197  0.28709357  0.15626299     0.13500
H196        H  0.18951812  0.38027304  0.15543591     0.14000
C197        C  0.33616469  0.16462603  0.36510200    -0.15600
C198        C  0.30319904  0.14348291  0.33245671    -0.30700
H199        H  0.36847887  0.18271019  0.34954203     0.13500
H200        H  0.27087796  0.12536098  0.34666203     0.14000
C201        C  0.31336244  0.14677268  0.11562106    -0.15600
C202        C  0.33061330  0.18038201  0.08262610    -0.30700
H203        H  0.29828847  0.11453196  0.10070841     0.13500
H204        H  0.34464208  0.21203255  0.09710683     0.14000
C205        C  0.34089131  0.17465959  0.52433979     0.30900
C206        C  0.33934038  0.18207658  0.92344171     0.30900
C207        C  0.36519457  0.15453494  0.49847464    -0.05300
C208        C  0.29540293  0.14732753  0.50341958    -0.06100
C209        C  0.35776463  0.21641126  0.49466474    -0.06000
C210        C  0.36127118  0.16028078  0.95058362    -0.05300
C211        C  0.29340768  0.15801686  0.94673278    -0.06100
C212        C  0.35877105  0.22583571  0.95025444    -0.06000
C213        C  0.38331287  0.13867749  0.93954963    -0.31400
N214        N  0.40007516  0.12177087  0.47174205     0.15100
C215        C  0.39080219  0.13786815  0.51125560    -0.31400
H216        H  0.40126619  0.13530117  0.54679216     0.17100
C217        C  0.25143337  0.13832716  0.93061847    -0.30300
N218        N  0.22444831  0.12435096  0.96976971     0.13900
C219        C  0.25449627  0.12575513  0.52331675    -0.30300
C220        C  0.38156719  0.26924232  0.93800220    -0.30600
N221        N  0.39128994  0.28266410  0.46426715     0.14400
H222        H  0.39167888  0.28263881  0.90209990     0.17000
C223        C  0.37969199  0.25938387  0.50571036    -0.30600
H224        H  0.38798388  0.27294483  0.54149313     0.17000
H225        H  0.24593294  0.12368445  0.56118894     0.17000
H226        H  0.39114176  0.13091356  0.90481514     0.17100
H227        H  0.24129016  0.13476694  0.89357911     0.17000
C228        C  0.35823747  0.17067914  0.67342573     0.30900
C229        C  0.35768733  0.17208377  0.77519444     0.30900
C230        C  0.38186836  0.15019662  0.69945128    -0.05300
C231        C  0.37928179  0.21543178  0.69780413    -0.06100
C232        C  0.31385158  0.14785772  0.69954918    -0.06000
C233        C  0.38111486  0.15083689  0.75016024    -0.05300
C234        C  0.37913797  0.21565604  0.74893040    -0.06100
C235        C  0.31383392  0.14902222  0.75051887    -0.06000
C236        C  0.40412432  0.13201150  0.76565080    -0.31400
N237        N  0.41917204  0.12027506  0.72679374     0.15100
C238        C  0.40610661  0.13113547  0.68613855    -0.31400
H239        H  0.41348036  0.12531395  0.64986792     0.17100
C240        C  0.39950117  0.25755654  0.76327066    -0.30300
N241        N  0.41131116  0.28278318  0.72341955     0.13900
C242        C  0.39923737  0.25795124  0.68324047    -0.30300
C243        C  0.27182268  0.13085981  0.76593679    -0.30600
N244        N  0.24653985  0.11836061  0.72669711     0.14400
H245        H  0.26026733  0.12677300  0.80291981     0.17000
C246        C  0.27137838  0.12789446  0.68607430    -0.30600
H247        H  0.25938304  0.12148078  0.64972760     0.17000
H248        H  0.40465604  0.26995448  0.64659814     0.17000
H249        H  0.40983913  0.12713512  0.80260534     0.17100
H250        H  0.40482128  0.26908304  0.80004536     0.17000
C251        C  0.16380461  0.33230824  0.58093162     0.29100
C252        C  0.17131860  0.35249497  0.98061295     0.30900
C253        C  0.13925137  0.35227529  0.55616942    -0.05300
C254        C  0.20807222  0.35567260  0.55277935    -0.06100
C255        C  0.14252026  0.28750276  0.55673306    -0.06000
C256        C  0.14703591  0.37226185  0.00706430    -0.05300
C257        C  0.21437664  0.37443799  0.00726243    -0.06100
C258        C  0.14925812  0.30741807  0.00346106    -0.06000
C259        C  0.12583789  0.39325195  0.99278612    -0.31400
N260        N  0.10303825  0.38355329  0.52986347     0.15100
C261        C  0.11809092  0.37419824  0.57009594    -0.31400
H262        H  0.11459496  0.38331826  0.60639053     0.17100
C263        C  0.25714110  0.39639073  0.99370769    -0.30300
N264        N  0.27474587  0.38987090  0.51988351     0.13900
C265        C  0.25204775  0.37791265  0.56240310    -0.30300
C266        C  0.13079708  0.26652629  0.98557030    -0.30600
N267        N  0.11151881  0.21935415  0.53413274     0.14400
H268        H  0.12672836  0.25741102  0.94798340     0.17000
C269        C  0.12306991  0.24546714  0.57307082    -0.30600
H270        H  0.11761093  0.23467313  0.61020264     0.17000
H271        H  0.26696201  0.38493858  0.59721354     0.17000
H272        H  0.12160532  0.40041644  0.95614372     0.17100
H273        H  0.26988399  0.40340788  0.95713685     0.17000
C274        C  0.18670681  0.33962422  0.72942828     0.30900
C275        C  0.18502528  0.34039645  0.83153724     0.30900
C276        C  0.16745236  0.36470796  0.75389199    -0.05300
C277        C  0.16132178  0.29582188  0.75530588    -0.06100
C278        C  0.23021855  0.35879652  0.75503024    -0.06000
C279        C  0.16519511  0.36464719  0.80507156    -0.05300
C280        C  0.16090334  0.29583598  0.80632508    -0.06100
C281        C  0.23000281  0.36004748  0.80580225    -0.06000
C282        C  0.14140251  0.38448887  0.81654283    -0.31400
N283        N  0.13163487  0.39730866  0.77505052     0.15100
C284        C  0.14731373  0.38559066  0.73695704    -0.31400
H285        H  0.14255595  0.39027266  0.69956402     0.17100
C286        C  0.14094406  0.25306662  0.82075194    -0.30300
N287        N  0.12891192  0.22810965  0.78064030     0.13900
C288        C  0.14096942  0.25371210  0.74093109    -0.30300
C289        C  0.27309315  0.38133018  0.81897800    -0.30600
N290        N  0.29824869  0.39152217  0.77822145     0.14400
H291        H  0.28518679  0.38948082  0.85521371     0.17000
C292        C  0.27247460  0.37786670  0.73949972    -0.30600
H293        H  0.28414273  0.38325431  0.70252350     0.17000
H294        H  0.13692290  0.24237974  0.70413687     0.17000
H295        H  0.13046814  0.38851109  0.85158124     0.17100
H296        H  0.13644340  0.24106922  0.85733585     0.17000
O297        O  0.44310777  0.02185132  0.53055900    -0.87500
C298        C  0.43314668  0.44891956  0.93621947     0.88600
Mg299      Mg  0.49408681  0.08740562  0.53703817     1.58100
O300        O  0.47715939  0.42764007  0.52649891    -0.87200
O301        O  0.41626144  0.46076165  0.57294907    -0.74500
C302        C  0.17854710  0.10351642  0.97113025     0.93600
O303        O  0.46666114  0.05896915  0.92628541    -0.74400
O304        O  0.16037391  0.12511927  0.96075674    -0.81900
Mg305      Mg  0.41237401  0.51138588  0.97603667     1.58000
C306        C  0.08413789  0.41021334  0.52576084     0.93500
O307        O  0.34131987  0.44960884  0.49857202    -0.80100
H308        H  0.46512588  0.40844076  0.59416817    -0.05500
C309        C  0.06114344  0.00981808  0.92844352     0.88500
O310        O  0.02647184  0.06188204  0.57832949    -0.74600
O311        O  0.42967597  0.46217517  0.97576968    -0.87400
O312        O  0.04806073  0.39493559  0.50428490    -0.80200
C313        C  0.41570210  0.33864839  0.98413594     0.93600
C314        C  0.32065797  0.41047709  0.51319023     0.93500
Mg315      Mg  0.09073477  0.00168079  0.53763615     1.58000
O316        O  0.15799374  0.06581765  0.98937763    -0.80100
O317        O  0.02543583  0.45409741  0.57421423    -0.74400
O318        O  0.39799543  0.35919414  0.00165403    -0.80200
O319        O  0.39232254  0.06185856  0.97838799    -0.81900
O320        O  0.10744760  0.15352352  0.52212076    -0.80200
C321        C  0.98726178  0.42839221  0.56097566     0.87900
O322        O  0.07294881  0.04993845  0.53829227    -0.87400
O323        O  0.05474617  0.49533629  0.97118072    -0.87500
O324        O  0.07251990  0.04874372  0.91933865    -0.74500
Mg325      Mg  0.40998047  0.40793027  0.52163235     1.58000
O326        O  0.45609755  0.35692387  0.97533628    -0.81900
H327        H  0.42396192  0.01768681  0.59914908    -0.05600
O328        O  0.02452584  0.09313802  0.96535190    -0.87200
H329        H  0.02612988  0.11003366  0.89695038    -0.05500
H330        H  0.05740495  0.03387464  0.60673515    -0.05600
C331        C  0.50534859  0.08898944  0.93213540     0.87900
C332        C  0.42585889  0.49982847  0.56861228     0.88500
C333        C  0.05349013  0.04903619  0.57572412     0.88500
H334        H  0.05432590  0.48646251  0.90194567    -0.05600
O335        O  0.46128364  0.43799675  0.92809364    -0.74600
Mg336      Mg  0.09017588  0.10866252  0.96317089     1.58000
H337        H  0.41198416  0.44724910  0.90819820    -0.05600
C338        C  0.41424904  0.10218910  0.98562505     0.93500
O339        O  0.04673729  0.15463880  0.53757691    -0.81900
C340        C  0.08759549  0.17344819  0.53358815     0.93600
O341        O  0.33905521  0.38829456  0.51879765    -0.81900
Mg342      Mg  0.00732508  0.42853917  0.97296014     1.58200
O343        O  0.45307622  0.12107106  0.99983863    -0.80200
O344        O  0.10616477  0.44958641  0.53820111    -0.81900
O345        O  0.04348035  0.45489627  0.71328524    -0.87500
C346        C  0.45259089  0.43088682  0.82138388     0.88600
Mg347      Mg  0.11122650  0.50365422  0.71485784     1.58100
O348        O  0.44957744  0.48357397  0.71799122    -0.87200
O349        O  0.48904495  0.42731588  0.67310115    -0.74500
C350        C  0.10911295  0.18229810  0.77776541     0.93600
O351        O  0.06055352  0.47077918  0.82318506    -0.74400
O352        O  0.13145608  0.16443539  0.78632976    -0.81900
Mg353      Mg  0.51563450  0.40952894  0.78193621     1.58000
C354        C  0.44290467  0.09798750  0.73060309     0.93500
O355        O  0.47057517  0.34858239  0.74088014    -0.80100
H356        H  0.45485507  0.48367247  0.64703583    -0.05500
C357        C  0.01367661  0.06151043  0.81529278     0.88500
O358        O  0.10709767  0.05515509  0.66854066    -0.74600
O359        O  0.46785290  0.42903009  0.78227993    -0.87400
O360        O  0.42246578  0.05848638  0.74328053    -0.80200
C361        C  0.34435140  0.41704200  0.77368663     0.93600
C362        C  0.43205114  0.32837957  0.72594798     0.93500
Mg363      Mg  0.03215297  0.10132824  0.71529111     1.58000
O364        O  0.07136582  0.16168780  0.76045926    -0.80100
O365        O  0.49622345  0.04429556  0.67675144    -0.74400
O366        O  0.36529194  0.39919155  0.75779223    -0.80200
O367        O  0.06586478  0.39550115  0.77739220    -0.81900
O368        O  0.18100525  0.11335615  0.74710633    -0.80200
C369        C  0.46677671  0.00491477  0.67882316     0.87900
O370        O  0.08260168  0.08617507  0.71685159    -0.87400
O371        O  0.50295093  0.05436019  0.78698873    -0.87500
O372        O  0.05270513  0.07412108  0.82506484    -0.74500
Mg373      Mg  0.43041433  0.41681726  0.71862482     1.58000
O374        O  0.36254390  0.45750715  0.78036409    -0.81900
H375        H  0.04806855  0.43734310  0.64672606    -0.05600
O376        O  0.09811722  0.02797742  0.77815745    -0.87200
H377        H  0.11028896  0.02621783  0.84719498    -0.05500
H378        H  0.10212647  0.10716613  0.64963957    -0.05600
C379        C  0.09048904  0.50959923  0.81735229     0.87900
C380        C  0.52790847  0.43762338  0.68054148     0.88500
C381        C  0.09803492  0.08444318  0.67757650     0.88500
H382        H  0.49321040  0.04338160  0.85661209    -0.05600
O383        O  0.44078002  0.45835351  0.82896781    -0.74600
Mg384      Mg  0.11479499  0.09379394  0.78264177     1.58000
H385        H  0.44932833  0.40859112  0.84925367    -0.05600
C386        C  0.10645636  0.41756568  0.77004003     0.93500
O387        O  0.18166655  0.05522060  0.71781673    -0.81900
C388        C  0.20075676  0.09482864  0.72944423     0.93600
O389        O  0.41001904  0.34659077  0.71904564    -0.81900
Mg390      Mg  0.43575649  0.00966807  0.78202669     1.58200
O391        O  0.12515453  0.45593559  0.75359832    -0.80200
O392        O  0.48388344  0.11906352  0.72667425    -0.81900
C393        C  0.17212818  0.35640898  0.92341888    -0.15600
C394        C  0.18611847  0.33791200  0.88897125    -0.30700
H395        H  0.15971148  0.37602019  0.91023084     0.13500
H396        H  0.19936912  0.31870282  0.90252460     0.14000
C397        C  0.19106360  0.34120119  0.67208273    -0.15600
C398        C  0.15936285  0.33003563  0.63835014    -0.30700
H399        H  0.22312424  0.35263953  0.65784013     0.13500
H400        H  0.12666516  0.31686805  0.65253290     0.14000
C401        C  0.33976004  0.18541511  0.86602765    -0.15600
C402        C  0.35863991  0.17114796  0.83238370    -0.30700
H403        H  0.32235041  0.20033268  0.85182079     0.13500
H404        H  0.37624262  0.15707586  0.84618867     0.14000
C405        C  0.35921587  0.16737644  0.61645554    -0.15600
C406        C  0.34126190  0.18074175  0.58163671    -0.30700
H407        H  0.37534491  0.15053121  0.60396878     0.13500
H408        H  0.32404941  0.19666523  0.59483129     0.14000
C409        C  0.33284330  0.67860416  0.02499079     0.30900
C410        C  0.33317251  0.66697952  0.42200424     0.30900
C411        C  0.35764058  0.65863722  0.00145585    -0.05300
C412        C  0.29057674  0.65617817  0.99743318    -0.06100
C413        C  0.35548069  0.72345644  0.00055137    -0.06000
C414        C  0.35862284  0.64873292  0.44742815    -0.05300
C415        C  0.28994739  0.64429126  0.45162977    -0.06100
C416        C  0.35510610  0.71320923  0.44366201    -0.06000
C417        C  0.37793510  0.62559168  0.43255705    -0.31400
N418        N  0.39438955  0.62687814  0.98125176     0.15100
C419        C  0.37883794  0.63903412  0.01907977    -0.31400
H420        H  0.38193989  0.63306055  0.05658161     0.17100
C421        C  0.24602962  0.62099952  0.44298873    -0.30300
N422        N  0.22418433  0.61016876  0.48583651     0.13900
C423        C  0.24786224  0.63511082  0.01042146    -0.30300
C424        C  0.37717152  0.75536440  0.42617105    -0.30600
N425        N  0.39115178  0.79235939  0.97837776     0.14400
H426        H  0.38287484  0.76525154  0.38875311     0.17000
C427        C  0.37500020  0.76528540  0.01671090    -0.30600
H428        H  0.37847479  0.77565380  0.05383444     0.17000
H429        H  0.23469477  0.62910236  0.04682083     0.17000
H430        H  0.37994602  0.61565837  0.39618308     0.17100
H431        H  0.23027373  0.61306336  0.40870410     0.17000
C432        C  0.31079860  0.64856597  0.17258018     0.30900
C433        C  0.30626666  0.64504501  0.27456150     0.30900
C434        C  0.32980089  0.62360571  0.19826472    -0.05300
C435        C  0.33404066  0.69223276  0.20017796    -0.06100
C436        C  0.26498194  0.62691027  0.19660679    -0.06000
C437        C  0.32698148  0.62157050  0.24921228    -0.05300
C438        C  0.33150360  0.68940858  0.25117726    -0.06100
C439        C  0.26316226  0.62583353  0.24751599    -0.06000
C440        C  0.34520619  0.59802776  0.26392704    -0.31400
N441        N  0.35969495  0.58642751  0.22438763     0.15100
C442        C  0.35101318  0.60200804  0.18421462    -0.31400
H443        H  0.36002749  0.59841284  0.14778650     0.17100
C444        C  0.35394739  0.72991274  0.26944944    -0.30300
N445        N  0.36985893  0.75768001  0.23218759     0.13900
C446        C  0.35787432  0.73598213  0.19003346    -0.30300
C447        C  0.22027753  0.60341450  0.26113016    -0.30600
N448        N  0.19583166  0.59026268  0.22113299     0.14400
H449        H  0.20750726  0.59585736  0.29764846     0.17000
C450        C  0.22244685  0.60396079  0.18147486    -0.30600
H451        H  0.21176573  0.59725123  0.14461356     0.17000
H452        H  0.36582070  0.75204728  0.15566013     0.17000
H453        H  0.34926060  0.59121960  0.30080025     0.17100
H454        H  0.35706490  0.73895657  0.30700408     0.17000
C455        C  0.16751573  0.84754336  0.08062369     0.29100
C456        C  0.16331267  0.83058603  0.47646289     0.30900
C457        C  0.14679964  0.87134285  0.05610636    -0.05300
C458        C  0.21307142  0.87063582  0.05633309    -0.06100
C459        C  0.14641091  0.80424692  0.05240947    -0.06000
C460        C  0.14016982  0.85082130  0.50297689    -0.05300
C461        C  0.20839088  0.85569284  0.49888931    -0.06100
C462        C  0.14439805  0.78705334  0.50350714    -0.06000
C463        C  0.11685211  0.86917656  0.48835144    -0.31400
N464        N  0.11433452  0.90663665  0.03081649     0.15100
C465        C  0.12557709  0.89302377  0.07081661    -0.31400
H466        H  0.11862828  0.89822494  0.10754066     0.17100
C467        C  0.24954572  0.87831020  0.47990260    -0.30300
N468        N  0.28178783  0.90526907  0.03224806     0.13900
C469        C  0.25524145  0.89038649  0.07170088    -0.30300
C470        C  0.12371527  0.74411048  0.49169301    -0.30600
N471        N  0.11613716  0.73877222  0.02061735     0.14400
H472        H  0.11692063  0.73038435  0.45605605     0.17000
C473        C  0.12559544  0.76063109  0.06271845    -0.30600
H474        H  0.11808592  0.74508199  0.09749927     0.17000
H475        H  0.26583706  0.89369007  0.10853323     0.17000
H476        H  0.11035449  0.87355179  0.45149853     0.17100
H477        H  0.25861141  0.88237666  0.44205883     0.17000
C478        C  0.14369042  0.81572634  0.22744678     0.30900
C479        C  0.14127387  0.80986139  0.32895986     0.30900
C480        C  0.12583366  0.84076296  0.25541676    -0.05300
C481        C  0.11644506  0.77036703  0.25010724    -0.06100
C482        C  0.18671797  0.83139163  0.25269670    -0.06000
C483        C  0.12373555  0.83750715  0.30637578    -0.05300
C484        C  0.11560128  0.76712925  0.30069834    -0.06100
C485        C  0.18578947  0.82902930  0.30361551    -0.06000
C486        C  0.10225620  0.85852750  0.32226830    -0.31400
N487        N  0.09305757  0.87509051  0.28316365     0.15100
C488        C  0.10728082  0.86447312  0.24265968    -0.31400
H489        H  0.10223129  0.87151891  0.20626369     0.17100
C490        C  0.09412441  0.72347369  0.31165624    -0.30300
N491        N  0.08118723  0.70084663  0.26992500     0.13900
C492        C  0.09471062  0.72894250  0.23241827    -0.30300
C493        C  0.22797746  0.84948310  0.31809643    -0.30600
N494        N  0.25348884  0.86301193  0.27797839     0.14400
H495        H  0.23939794  0.85545666  0.35468208     0.17000
C496        C  0.22901326  0.85225983  0.23817904    -0.30600
H497        H  0.24136334  0.86111358  0.20161786     0.17000
H498        H  0.09095694  0.71960446  0.19491169     0.17000
H499        H  0.09292859  0.86053283  0.35906219     0.17100
H500        H  0.08945120  0.70914781  0.34706601     0.17000
O501        O  0.45342148  0.53815433  0.03644508    -0.87500
C502        C  0.45080010  0.95604386  0.42245600     0.88600
Mg503      Mg  0.50136155  0.60518322  0.03682282     1.58100
O504        O  0.48300668  0.94196696  0.03805616    -0.87200
O505        O  0.42897268  0.98278707  0.08363430    -0.74500
C506        C  0.17846738  0.58993500  0.49209197     0.93600
O507        O  0.46964140  0.54820282  0.42377542    -0.74400
O508        O  0.16035551  0.61184082  0.48318581    -0.81900
Mg509      Mg  0.41230071  0.00238362  0.46285989     1.58000
C510        C  0.09244395  0.93070318  0.02784391     0.93500
O511        O  0.34868687  0.96548045  0.01671957    -0.80100
H512        H  0.48137614  0.94393772  0.10905175    -0.05500
C513        C  0.07869890  0.50437822  0.43205759     0.88500
O514        O  0.04688731  0.59816322  0.07625588    -0.74600
O515        O  0.43025363  0.95398181  0.45952267    -0.87400
O516        O  0.05423137  0.91179299  0.01159297    -0.80200
C517        C  0.41621107  0.82920761  0.46413316     0.93600
C518        C  0.32778717  0.92636664  0.03085961     0.93500
Mg519      Mg  0.09472903  0.52358893  0.03181650     1.58000
O520        O  0.15749555  0.55115809  0.50766468    -0.80100
O521        O  0.03725343  0.98289416  0.07909121    -0.74400
O522        O  0.39657875  0.84966162  0.47461238    -0.80200
O523        O  0.38895034  0.54954907  0.46714891    -0.81900
O524        O  0.10898447  0.67306555  0.99891268    -0.80200
C525        C  0.99805073  0.95443469  0.07351658     0.87900
O526        O  0.07914677  0.57385277  0.02935898    -0.87400
O527        O  0.06321506  0.98358123  0.46861044    -0.87500
O528        O  0.08600038  0.54253711  0.42587908    -0.74500
Mg529      Mg  0.41652316  0.92389527  0.03834801     1.58000
O530        O  0.45730174  0.84816754  0.46093879    -0.81900
H531        H  0.44435665  0.54424812  0.10480658    -0.05600
O532        O  0.02383190  0.57750588  0.47125485    -0.87200
H533        H  0.03353745  0.60063631  0.40423697    -0.05500
H534        H  0.09626129  0.59000477  0.09764219    -0.05600
C535        C  0.50882923  0.57402000  0.43353421     0.87900
C536        C  0.44049773  0.02199679  0.07552359     0.88500
C537        C  0.07560290  0.58794444  0.06860918     0.88500
H538        H  0.08654531  0.98771958  0.40211146    -0.05600
O539        O  0.47788455  0.94317831  0.41998137    -0.74600
Mg540      Mg  0.09055325  0.59423483  0.47769912     1.58000
H541        H  0.44727374  0.97161800  0.39140278    -0.05600
C542        C  0.41227003  0.58971186  0.47466466     0.93500
O543        O  0.05066593  0.67533269  0.02537882    -0.81900
C544        C  0.09087145  0.69341484  0.01559999     0.93600
O545        O  0.34595961  0.90429940  0.03816440    -0.81900
Mg546      Mg  0.01200868  0.91924526  0.45948730     1.58200
O547        O  0.45082790  0.60691039  0.48983709    -0.80200
O548        O  0.11351026  0.97114772  0.03502502    -0.81900
O549        O  0.99716246  0.92143181  0.22221497    -0.87500
C550        C  0.40501832  0.90726391  0.32896239     0.88600
Mg551      Mg  0.06249231  0.97285083  0.21938378     1.58100
O552        O  0.39999934  0.95447520  0.22352032    -0.87200
O553        O  0.44217456  0.89916975  0.17892746    -0.74500
C554        C  0.06148608  0.65505325  0.26462215     0.93600
O555        O  0.01534326  0.94892040  0.33068699    -0.74400
O556        O  0.08379748  0.63722609  0.27274850    -0.81900
Mg557      Mg  0.46980116  0.88728263  0.29407054     1.58000
C558        C  0.38516542  0.56619828  0.22705634     0.93500
O559        O  0.42622046  0.82281045  0.25771621    -0.80100
H560        H  0.38246556  0.94925754  0.15533806    -0.05500
C561        C  0.96784859  0.54555994  0.31670508     0.88500
O562        O  0.04302614  0.50947412  0.17040050    -0.74600
O563        O  0.41946317  0.90261186  0.29029759    -0.87400
O564        O  0.36809197  0.52860672  0.24556675    -0.80200
C565        C  0.29900139  0.88881946  0.27614282     0.93600
C566        C  0.38943390  0.80276552  0.23798314     0.93500
Mg567      Mg  0.97642578  0.56798643  0.21326638     1.58000
O568        O  0.02301092  0.63383099  0.24899069    -0.80100
O569        O  0.42709853  0.50833673  0.17519533    -0.74400
O570        O  0.32041964  0.87128228  0.26157425    -0.80200
O571        O  0.02680075  0.87241446  0.29094340    -0.81900
O572        O  0.12857137  0.58347092  0.23690682    -0.80200
C573        C  0.40024599  0.46934340  0.18431223     0.87900
O574        O  0.02568665  0.55094761  0.21213196    -0.87400
O575        O  0.45340013  0.53328057  0.28054303    -0.87500
O576        O  0.00709092  0.55735538  0.32431961    -0.74500
Mg577      Mg  0.38440728  0.88915562  0.22480262     1.58000
O578        O  0.31602376  0.92900266  0.28397217    -0.81900
H579        H  0.99974082  0.90483100  0.15421536    -0.05600
O580        O  0.04525098  0.49979494  0.28039374    -0.87200
H581        H  0.05136090  0.50823155  0.35022399    -0.05500
H582        H  0.02240837  0.54707709  0.14104376    -0.05600
C583        C  0.04098918  0.98812863  0.32028327     0.87900
C584        C  0.48008743  0.90753916  0.18846178     0.88500
C585        C  0.03088676  0.53710522  0.17333727     0.88500
H586        H  0.45268116  0.55418878  0.34599078    -0.05600
O587        O  0.39413462  0.93572519  0.33417726    -0.74600
Mg588      Mg  0.06424733  0.56650946  0.27601298     1.58000
H589        H  0.40297567  0.88766834  0.35947976    -0.05600
C590        C  0.06711362  0.89502479  0.28130524     0.93500
O591        O  0.13099117  0.52433546  0.21783702    -0.81900
C592        C  0.14948814  0.56501470  0.22332432     0.93600
O593        O  0.36791943  0.82064598  0.22662105    -0.81900
Mg594      Mg  0.38592044  0.48376185  0.28551142     1.58200
O595        O  0.08423315  0.93300220  0.26357398    -0.80200
O596        O  0.42498584  0.58792291  0.21566830    -0.81900
C597        C  0.16323488  0.83493949  0.41940435    -0.15600
C598        C  0.13959366  0.80398857  0.38568752    -0.30700
H599        H  0.18346255  0.86742024  0.40546584     0.13500
H600        H  0.11761707  0.77195638  0.39891125     0.14000
C601        C  0.14329437  0.81579013  0.17018983    -0.15600
C602        C  0.16736277  0.84906657  0.13811721    -0.30700
H603        H  0.12047320  0.78553858  0.15467828     0.13500
H604        H  0.18842826  0.88041758  0.15374898     0.14000
C605        C  0.33534490  0.66476207  0.36456933    -0.15600
C606        C  0.30241342  0.64401464  0.33184130    -0.30700
H607        H  0.36778919  0.68225093  0.34918392     0.13500
H608        H  0.27001672  0.62644498  0.34611260     0.14000
C609        C  0.31176498  0.64623049  0.11506507    -0.15600
C610        C  0.33062494  0.67984306  0.08214908    -0.30700
H611        H  0.29557629  0.61397016  0.10014398     0.13500
H612        H  0.34602491  0.71156073  0.09653047     0.14000
C613        C  0.33891113  0.67397225  0.52388191     0.30900
C614        C  0.33926022  0.68132913  0.92315665     0.30900
C615        C  0.36175604  0.65227793  0.49828517    -0.05300
C616        C  0.29353052  0.64787988  0.50247190    -0.06100
C617        C  0.35723552  0.71619595  0.49444684    -0.06000
C618        C  0.36085110  0.65910443  0.95031055    -0.05300
C619        C  0.29328634  0.65772671  0.94656281    -0.06100
C620        C  0.35930574  0.72517638  0.94985502    -0.06000
C621        C  0.38353728  0.63808773  0.93943497    -0.31400
N622        N  0.39300747  0.61588329  0.47207285     0.15100
C623        C  0.38303630  0.63115199  0.51183605    -0.31400
H624        H  0.38908229  0.62432788  0.54755274     0.17100
C625        C  0.25120066  0.63800588  0.93063438    -0.30300
N626        N  0.22426375  0.62423593  0.96987998     0.13900
C627        C  0.25257221  0.62637596  0.52213748    -0.30300
C628        C  0.38234430  0.76855748  0.93738141    -0.30600
N629        N  0.39158046  0.78283225  0.46431743     0.14400
H630        H  0.39218081  0.78176316  0.90137970     0.17000
C631        C  0.37950953  0.75926338  0.50566725    -0.30600
H632        H  0.38752734  0.77264525  0.54153726     0.17000
H633        H  0.24386625  0.62388117  0.56001393     0.17000
H634        H  0.39166697  0.63067370  0.90456276     0.17100
H635        H  0.24096081  0.63419870  0.89363255     0.17000
C636        C  0.35818151  0.67137049  0.67275143     0.30900
C637        C  0.35767639  0.67253929  0.77456640     0.30900
C638        C  0.38148525  0.65039391  0.69866635    -0.05300
C639        C  0.37932132  0.71607828  0.69726437    -0.06100
C640        C  0.31366531  0.64857863  0.69889596    -0.06000
C641        C  0.38067515  0.65089177  0.74936513    -0.05300
C642        C  0.37934776  0.71635688  0.74835486    -0.06100
C643        C  0.31374556  0.64970392  0.74990711    -0.06000
C644        C  0.40220823  0.63045987  0.76484412    -0.31400
N645        N  0.41649419  0.61784533  0.72604600     0.15100
C646        C  0.40431148  0.62975397  0.68538466    -0.31400
H647        H  0.41120697  0.62350459  0.64908494     0.17100
C648        C  0.39923504  0.75849851  0.76242790    -0.30300
N649        N  0.41058095  0.78367693  0.72244186     0.13900
C650        C  0.39870554  0.75856184  0.68247896    -0.30300
C651        C  0.27170760  0.63087870  0.76552544    -0.30600
N652        N  0.24623756  0.61801430  0.72642600     0.14400
H653        H  0.26026735  0.62647996  0.80257252     0.17000
C654        C  0.27103236  0.62805341  0.68566429    -0.30600
H655        H  0.25888655  0.62142323  0.64937777     0.17000
H656        H  0.40373579  0.77032368  0.64575270     0.17000
H657        H  0.40748108  0.62512267  0.80180426     0.17100
H658        H  0.40448628  0.77017283  0.79912956     0.17000
C659        C  0.16703995  0.83369271  0.57830773     0.29100
C660        C  0.17208064  0.85251687  0.97861649     0.30900
C661        C  0.14218744  0.85318225  0.55358803    -0.05300
C662        C  0.21116863  0.85730203  0.54987312    -0.06100
C663        C  0.14583259  0.78878167  0.55450198    -0.06000
C664        C  0.14880820  0.87314531  0.00530842    -0.05300
C665        C  0.21507022  0.87338034  0.00537734    -0.06100
C666        C  0.14907781  0.80743533  0.00130829    -0.06000
C667        C  0.12818980  0.89467841  0.99115930    -0.31400
N668        N  0.10523800  0.88357745  0.52768994     0.15100
C669        C  0.12082040  0.87473142  0.56774811    -0.31400
H670        H  0.11747915  0.88391195  0.60406776     0.17100
C671        C  0.25779973  0.89521498  0.99196992    -0.30300
N672        N  0.27762598  0.89339683  0.51657063     0.13900
C673        C  0.25513458  0.88080626  0.55920117    -0.30300
C674        C  0.13021155  0.76665836  0.98313035    -0.30600
N675        N  0.11173217  0.72035032  0.53282917     0.14400
H676        H  0.12621714  0.75770483  0.94549076     0.17000
C677        C  0.12474345  0.74687808  0.57139462    -0.30600
H678        H  0.11880293  0.73645385  0.60865861     0.17000
H679        H  0.27018576  0.88816429  0.59393233     0.17000
H680        H  0.12381681  0.90180582  0.95456165     0.17100
H681        H  0.27069063  0.90257395  0.95547344     0.17000
C682        C  0.18877063  0.84194920  0.72690160     0.30900
C683        C  0.18599022  0.84148869  0.82904736     0.30900
C684        C  0.16779766  0.86535652  0.75144683    -0.05300
C685        C  0.16437918  0.79771779  0.75204578    -0.06100
C686        C  0.23199062  0.86231969  0.75307882    -0.06000
C687        C  0.16516451  0.86485723  0.80264547    -0.05300
C688        C  0.16334475  0.79712475  0.80306578    -0.06100
C689        C  0.23122022  0.86284846  0.80386460    -0.06000
C690        C  0.14148250  0.88479730  0.81412607    -0.31400
N691        N  0.13191473  0.89780763  0.77260333     0.15100
C692        C  0.14776415  0.88630270  0.73451041    -0.31400
H693        H  0.14355708  0.89153876  0.69710202     0.17100
C694        C  0.14279956  0.75412668  0.81676721    -0.30300
N695        N  0.13086173  0.72958401  0.77628270     0.13900
C696        C  0.14374281  0.75573641  0.73697133    -0.30300
C697        C  0.27411021  0.88472756  0.81764440    -0.30600
N698        N  0.29961661  0.89600969  0.77713779     0.14400
H699        H  0.28581671  0.89211525  0.85409200     0.17000
C700        C  0.27435766  0.88255566  0.73805944    -0.30600
H701        H  0.28646111  0.88833980  0.70125263     0.17000
H702        H  0.13959882  0.74485471  0.69999172     0.17000
H703        H  0.13089133  0.88912144  0.84922170     0.17100
H704        H  0.13733558  0.74165862  0.85321106     0.17000
O705        O  0.44005492  0.51956788  0.53034589    -0.87500
C706        C  0.43246007  0.94874018  0.93508898     0.88600
Mg707      Mg  0.49042027  0.58546370  0.53413773     1.58100
O708        O  0.47890311  0.92821881  0.52600173    -0.87200
O709        O  0.41788771  0.96220455  0.57192178    -0.74500
C710        C  0.17829147  0.60343637  0.97136129     0.93600
O711        O  0.46811854  0.55830507  0.92720089    -0.74400
O712        O  0.16016035  0.62511957  0.96105106    -0.81900
Mg713      Mg  0.41150691  0.01134049  0.97535440     1.58000
C714        C  0.08592243  0.90980063  0.52402363     0.93500
O715        O  0.34457581  0.95332426  0.49594447    -0.80100
H716        H  0.46761760  0.90737075  0.59316719    -0.05500
C717        C  0.06135703  0.50928838  0.92982150     0.88500
O718        O  0.02651892  0.56407647  0.57914472    -0.74600
O719        O  0.42957252  0.96248010  0.97452682    -0.87400
O720        O  0.04982011  0.89430470  0.50262424    -0.80200
C721        C  0.41658448  0.83834044  0.98300983     0.93600
C722        C  0.32353067  0.91397609  0.50994868     0.93500
Mg723      Mg  0.08949478  0.50263299  0.53818109     1.58000
O724        O  0.15759592  0.56560813  0.98942353    -0.80100
O725        O  0.02656071  0.95263633  0.57259208    -0.74400
O726        O  0.39869591  0.85884494  0.00018431    -0.80200
O727        O  0.39379208  0.56223382  0.97806708    -0.81900
O728        O  0.10601605  0.65375583  0.52221510    -0.80200
C729        C  0.98844794  0.92684255  0.55938472     0.87900
O730        O  0.07151443  0.55070555  0.53804517    -0.87400
O731        O  0.05614081  0.99532100  0.96947429    -0.87500
O732        O  0.07293261  0.54809415  0.91970816    -0.74500
Mg733      Mg  0.41199885  0.91006768  0.51959706     1.58000
O734        O  0.45697675  0.85689937  0.97419690    -0.81900
H735        H  0.42290447  0.51665814  0.59954051    -0.05600
O736        O  0.02366026  0.59203936  0.96546121    -0.87200
H737        H  0.02455140  0.60866008  0.89727382    -0.05500
H738        H  0.05692120  0.53517537  0.60661166    -0.05600
C739        C  0.50688853  0.58815601  0.93294104     0.87900
C740        C  0.42771196  0.00138389  0.56818554     0.88500
C741        C  0.05288215  0.55046033  0.57584094     0.88500
H742        H  0.05253131  0.98727118  0.89994446    -0.05600
O743        O  0.46024390  0.93737084  0.92699570    -0.74600
Mg744      Mg  0.08972969  0.60822611  0.96297681     1.58000
H745        H  0.41096277  0.94672613  0.90726220    -0.05600
C746        C  0.41538904  0.60246928  0.98587739     0.93500
O747        O  0.04602359  0.65637141  0.53708053    -0.81900
C748        C  0.08685558  0.67447909  0.53296797     0.93600
O749        O  0.34164471  0.89157573  0.51572236    -0.81900
Mg750      Mg  0.00902627  0.92858144  0.97081769     1.58200
O751        O  0.45399741  0.62132890  0.00095239    -0.80200
O752        O  0.10758778  0.94902903  0.53695683    -0.81900
O753        O  0.04422779  0.95655637  0.71219459    -0.87500
C754        C  0.45254028  0.93209787  0.82037804     0.88600
Mg755      Mg  0.11184568  0.00479037  0.71371114     1.58100
O756        O  0.45050869  0.98573675  0.71711380    -0.87200
O757        O  0.48908062  0.92897141  0.67231986    -0.74500
C758        C  0.11042210  0.68364817  0.77307692     0.93600
O759        O  0.06021268  0.97033987  0.82199433    -0.74400
O760        O  0.13189661  0.66519788  0.78330897    -0.81900
Mg761      Mg  0.51515806  0.91037330  0.78009982     1.58000
C762        C  0.44016975  0.59537434  0.73005042     0.93500
O763        O  0.47080606  0.85006135  0.73662132    -0.80100
H764        H  0.45713189  0.98668258  0.64623230    -0.05500
C765        C  0.01405205  0.56487178  0.81355202     0.88500
O766        O  0.10669661  0.55346052  0.66828423    -0.74600
O767        O  0.46751982  0.93006232  0.78117159    -0.87400
O768        O  0.41989827  0.55606621  0.74376855    -0.80200
C769        C  0.34566873  0.92076957  0.77311835     0.93600
C770        C  0.43143140  0.82947906  0.72439689     0.93500
Mg771      Mg  0.03190440  0.60084045  0.71246821     1.58000
O772        O  0.07294975  0.66334746  0.75478663    -0.80100
O773        O  0.49415978  0.54170511  0.67650203    -0.74400
O774        O  0.36598309  0.90228621  0.75722944    -0.80200
O775        O  0.06638137  0.89630943  0.77508516    -0.81900
O776        O  0.18053581  0.61288578  0.74630972    -0.80200
C777        C  0.46498479  0.50230589  0.67930583     0.87900
O778        O  0.08262152  0.58589729  0.71511951    -0.87400
O779        O  0.50116703  0.55298626  0.78754115    -0.87500
O780        O  0.05282685  0.57705454  0.82406351    -0.74500
Mg781      Mg  0.43044363  0.91862979  0.71780188     1.58000
O782        O  0.36440071  0.96121694  0.77984218    -0.81900
H783        H  0.05025475  0.94083512  0.64550290    -0.05600
O784        O  0.09701350  0.52796101  0.77838606    -0.87200
H785        H  0.11022755  0.52747270  0.84733149    -0.05500
H786        H  0.10311830  0.60596190  0.64792246    -0.05600
C787        C  0.09081500  0.00895346  0.81680111     0.87900
C788        C  0.52806738  0.93985876  0.68012435     0.88500
C789        C  0.09828636  0.58337864  0.67633818     0.88500
H790        H  0.49221561  0.54073226  0.85708915    -0.05600
O791        O  0.44163092  0.96019205  0.82834479    -0.74600
Mg792      Mg  0.11445800  0.59430401  0.78143780     1.58000
H793        H  0.44879873  0.90943008  0.84798045    -0.05600
C794        C  0.10692912  0.91822791  0.76755329     0.93500
O795        O  0.18133749  0.55436192  0.71882306    -0.81900
C796        C  0.20039370  0.59421417  0.72944204     0.93600
O797        O  0.40912589  0.84770890  0.71924847    -0.81900
Mg798      Mg  0.43395068  0.50729731  0.78255076     1.58200
O799        O  0.12570261  0.95655630  0.75101708    -0.80200
O800        O  0.48114463  0.61631471  0.72536228    -0.81900
C801        C  0.17265506  0.85653972  0.92131955    -0.15600
C802        C  0.18697432  0.83857723  0.88653175    -0.30700
H803        H  0.15971978  0.87573072  0.90826274     0.13500
H804        H  0.20083815  0.81983706  0.89980517     0.14000
C805        C  0.19394213  0.84445570  0.66965566    -0.15600
C806        C  0.16229263  0.83138963  0.63562975    -0.30700
H807        H  0.22641906  0.85819941  0.65574413     0.13500
H808        H  0.12934319  0.81644039  0.64951441     0.14000
C809        C  0.33968136  0.68501465  0.86576798    -0.15600
C810        C  0.35853019  0.67101794  0.83181053    -0.30700
H811        H  0.32245256  0.70024208  0.85184705     0.13500
H812        H  0.37590800  0.65650632  0.84556540     0.14000
C813        C  0.36013959  0.66932289  0.61561303    -0.15600
C814        C  0.33886334  0.67930610  0.58128910    -0.30700
H815        H  0.38152521  0.65879977  0.60271014     0.13500
H816        H  0.31881022  0.69190720  0.59495354     0.14000
C817        C  0.83279353  0.17894143  0.01996569     0.30900
C818        C  0.83496351  0.16907735  0.41725904     0.30900
C819        C  0.85739607  0.15913833  0.99546874    -0.05300
C820        C  0.79040192  0.15696235  0.99253931    -0.06100
C821        C  0.85531328  0.22405105  0.99599959    -0.06000
C822        C  0.86261100  0.15318327  0.44250642    -0.05300
C823        C  0.79274394  0.14638886  0.44915617    -0.06100
C824        C  0.85599565  0.21601715  0.43656129    -0.06000
C825        C  0.88159093  0.12938741  0.42883293    -0.31400
N826        N  0.89287934  0.12641407  0.97358809     0.15100
C827        C  0.87813519  0.13871039  0.01207326    -0.31400
H828        H  0.88142739  0.13224027  0.04933908     0.17100
C829        C  0.74845984  0.12292755  0.44255488    -0.30300
N830        N  0.72794422  0.11355566  0.48636801     0.13900
C831        C  0.74778387  0.13587137  0.00581853    -0.30300
C832        C  0.87595770  0.25756384  0.41727126    -0.30600
N833        N  0.88995686  0.29316726  0.97460908     0.14400
H834        H  0.88047382  0.26631509  0.37957713     0.17000
C835        C  0.87435812  0.26570294  0.01265997    -0.30600
H836        H  0.87778363  0.27567504  0.04993257     0.17000
H837        H  0.73483580  0.12952102  0.04231269     0.17000
H838        H  0.88134238  0.11669790  0.39329914     0.17100
H839        H  0.73186343  0.11421465  0.40869806     0.17000
C840        C  0.80995293  0.14773755  0.16802626     0.30900
C841        C  0.80707828  0.14453100  0.27024218     0.30900
C842        C  0.82937599  0.12268777  0.19314314    -0.05300
C843        C  0.83331412  0.19146200  0.19546128    -0.06100
C844        C  0.76448129  0.12627037  0.19318608    -0.06000
C845        C  0.82744424  0.12095008  0.24417164    -0.05300
C846        C  0.83182214  0.18879282  0.24649821    -0.06100
C847        C  0.76369790  0.12540282  0.24413424    -0.06000
C848        C  0.84578230  0.09729695  0.25835798    -0.31400
N849        N  0.85940152  0.08507943  0.21855569     0.15100
C850        C  0.85005690  0.10052773  0.17862301    -0.31400
H851        H  0.85829601  0.09653129  0.14199779     0.17100
C852        C  0.85280034  0.22941905  0.26451312    -0.30300
N853        N  0.86661480  0.25708897  0.22716002     0.13900
C854        C  0.85439556  0.23521390  0.18513010    -0.30300
C855        C  0.72125794  0.10430119  0.25911524    -0.30600
N856        N  0.69587251  0.09161286  0.21998723     0.14400
H857        H  0.70933050  0.09729532  0.29598285     0.17000
C858        C  0.72147380  0.10433284  0.17945205    -0.30600
H859        H  0.70977661  0.09762858  0.14297609     0.17000
H860        H  0.85957107  0.25099243  0.15078702     0.17000
H861        H  0.85040371  0.09073201  0.29513442     0.17100
H862        H  0.85604769  0.23853815  0.30196091     0.17000
C863        C  0.66826126  0.34790013  0.08237920     0.29100
C864        C  0.66105564  0.33163557  0.47959157     0.30900
C865        C  0.64548761  0.36937462  0.05724907    -0.05300
C866        C  0.71349827  0.37228562  0.05698818    -0.06100
C867        C  0.64851565  0.30417393  0.05572783    -0.06000
C868        C  0.63843982  0.35159105  0.50802153    -0.05300
C869        C  0.70711987  0.35793016  0.49874050    -0.06100
C870        C  0.64441084  0.28891559  0.50814535    -0.06000
C871        C  0.61423546  0.36945258  0.49509353    -0.31400
N872        N  0.61309018  0.40434467  0.03100358     0.15100
C873        C  0.62478460  0.39163696  0.07135087    -0.31400
H874        H  0.61908109  0.39844285  0.10790836     0.17100
C875        C  0.74753451  0.37950026  0.47770488    -0.30300
N876        N  0.78158500  0.40821251  0.03052599     0.13900
C877        C  0.75613840  0.39360628  0.07091060    -0.30300
C878        C  0.62247904  0.24587771  0.49714986    -0.30600
N879        N  0.61692080  0.23802264  0.02657063     0.14400
H880        H  0.61329049  0.23171770  0.46189553     0.17000
C881        C  0.62744127  0.26102807  0.06786240    -0.30600
H882        H  0.62016622  0.24676623  0.10339631     0.17000
H883        H  0.76780760  0.39765450  0.10733170     0.17000
H884        H  0.60559885  0.37261331  0.45877907     0.17100
H885        H  0.75514623  0.38223250  0.43954023     0.17000
C886        C  0.64136867  0.31655767  0.22926573     0.30900
C887        C  0.63929249  0.31060810  0.33103820     0.30900
C888        C  0.62285418  0.34085613  0.25753002    -0.05300
C889        C  0.61474531  0.27112432  0.25190704    -0.06100
C890        C  0.68448739  0.33264884  0.25437084    -0.06000
C891        C  0.62089686  0.33756561  0.30854475    -0.05300
C892        C  0.61407013  0.26787944  0.30257475    -0.06100
C893        C  0.68385684  0.33045872  0.30532119    -0.06000
C894        C  0.59840271  0.35753855  0.32449458    -0.31400
N895        N  0.58834401  0.37335772  0.28540494     0.15100
C896        C  0.60300067  0.36333864  0.24483267    -0.31400
H897        H  0.59763720  0.37016511  0.20846220     0.17100
C898        C  0.59309816  0.22426530  0.31349771    -0.30300
N899        N  0.58056741  0.20164837  0.27175588     0.13900
C900        C  0.59360925  0.22971213  0.23420609    -0.30300
C901        C  0.72626992  0.35034263  0.31923362    -0.30600
N902        N  0.75148143  0.36324314  0.27876407     0.14400
H903        H  0.73800093  0.35613198  0.35567320     0.17000
C904        C  0.72660425  0.35247403  0.23935273    -0.30600
H905        H  0.73869973  0.36043044  0.20261574     0.17000
H906        H  0.59000987  0.22048456  0.19665767     0.17000
H907        H  0.58919048  0.35953021  0.36134594     0.17100
H908        H  0.58852885  0.20994514  0.34889111     0.17000
O909        O  0.95149239  0.03821200  0.02901952    -0.87500
C910        C  0.95072940  0.45956785  0.41683998     0.88600
Mg911      Mg  0.99945573  0.10515302  0.02960514     1.58100
O912        O  0.98065825  0.44225468  0.03565115    -0.87200
O913        O  0.92703524  0.48356084  0.07872253    -0.74500
C914        C  0.68215239  0.09331402  0.49450241     0.93600
O915        O  0.97481733  0.05259586  0.41856265    -0.74400
O916        O  0.66379006  0.11525599  0.48707639    -0.81900
Mg917      Mg  0.91005712  0.50368693  0.45915370     1.58000
C918        C  0.59214953  0.42924548  0.02779450     0.93500
O919        O  0.84866695  0.46732583  0.01270260    -0.80100
H920        H  0.97648436  0.44471687  0.10638061    -0.05500
C921        C  0.57918991  0.00491849  0.43655616     0.88500
O922        O  0.54774927  0.09581090  0.08044809    -0.74600
O923        O  0.92927548  0.45636218  0.45355932    -0.87400
O924        O  0.55346951  0.41068763  0.01302024    -0.80200
C925        C  0.91517755  0.33233425  0.45307189     0.93600
C926        C  0.82737786  0.42836380  0.02725652     0.93500
Mg927      Mg  0.59652507  0.02367731  0.02941551     1.58000
O928        O  0.66120562  0.05433158  0.50980667    -0.80100
O929        O  0.53971581  0.48188061  0.08193556    -0.74400
O930        O  0.89561296  0.35305049  0.46223305    -0.80200
O931        O  0.89438049  0.05565726  0.46010880    -0.81900
O932        O  0.60951860  0.17264613  0.00475759    -0.80200
C933        C  0.50013665  0.45384339  0.07797618     0.87900
O934        O  0.58025865  0.07354016  0.03097526    -0.87400
O935        O  0.56129991  0.48371226  0.47448208    -0.87500
O936        O  0.58782369  0.04363867  0.43134912    -0.74500
Mg937      Mg  0.91471854  0.42444147  0.03392348     1.58000
O938        O  0.95615239  0.35067128  0.45220159    -0.81900
H939        H  0.93809065  0.04224270  0.09702317    -0.05600
O940        O  0.52661571  0.07868396  0.47641101    -0.87200
H941        H  0.53643391  0.09845544  0.40807491    -0.05500
H942        H  0.59690845  0.08657150  0.09987132    -0.05600
C943        C  0.01380825  0.07720533  0.42963564     0.87900
C944        C  0.93929117  0.52293238  0.07066619     0.88500
C945        C  0.57644484  0.08584197  0.07128867     0.88500
H946        H  0.58188429  0.48624682  0.40693302    -0.05600
O947        O  0.97776880  0.44659657  0.41434382    -0.74600
Mg948      Mg  0.59323913  0.09634223  0.48268095     1.58000
H949        H  0.94774477  0.47583036  0.38604057    -0.05600
C950        C  0.91735143  0.09521962  0.47154565     0.93500
O951        O  0.55153890  0.17462929  0.03335023    -0.81900
C952        C  0.59162826  0.19271881  0.02267555     0.93600
O953        O  0.84478274  0.40546482  0.03325900    -0.81900
Mg954      Mg  0.51039226  0.41869066  0.46763900     1.58200
O955        O  0.95476589  0.11065238  0.48955700    -0.80200
O956        O  0.61412729  0.46976928  0.03403543    -0.81900
O957        O  0.49291808  0.42093816  0.22651581    -0.87500
C958        C  0.90414832  0.40728817  0.32550049     0.88600
Mg959      Mg  0.55905656  0.47124361  0.22152800     1.58100
O960        O  0.89781351  0.45398691  0.21983207    -0.87200
O961        O  0.93868877  0.39782922  0.17510795    -0.74500
C962        C  0.56142456  0.15590996  0.26667092     0.93600
O963        O  0.51246599  0.44991332  0.33377329    -0.74400
O964        O  0.58420921  0.13854863  0.27447607    -0.81900
Mg965      Mg  0.96768813  0.38616893  0.28864533     1.58000
C966        C  0.88501108  0.06476912  0.22091779     0.93500
O967        O  0.92330417  0.32232345  0.25157291    -0.80100
H968        H  0.88277553  0.44888471  0.15081709    -0.05500
C969        C  0.46902080  0.04638337  0.32083967     0.88500
O970        O  0.54252361  0.00855171  0.17447331    -0.74600
O971        O  0.91783574  0.40227476  0.28648650    -0.87400
O972        O  0.86724083  0.02588945  0.23599842    -0.80200
C973        C  0.79707186  0.38889820  0.27584101     0.93600
C974        C  0.88593835  0.30210784  0.23319724     0.93500
Mg975      Mg  0.47654742  0.06828106  0.21686869     1.58000
O976        O  0.52282405  0.13420920  0.25173462    -0.80100
O977        O  0.93171632  0.00934061  0.16967208    -0.74400
O978        O  0.81814102  0.37100537  0.26116281    -0.80200
O979        O  0.52257556  0.37166585  0.29386035    -0.81900
O980        O  0.62884541  0.08488892  0.23739166    -0.80200
C981        C  0.90491953  0.96993930  0.17789504     0.87900
O982        O  0.52567259  0.05094394  0.21532836    -0.87400
O983        O  0.95283274  0.03191379  0.27621034    -0.87500
O984        O  0.50846861  0.05857464  0.32777606    -0.74500
Mg985      Mg  0.88139062  0.38842260  0.22200097     1.58000
O986        O  0.81440506  0.42933274  0.28218149    -0.81900
H987        H  0.49433969  0.40104833  0.15983539    -0.05600
O988        O  0.54707294  0.00149540  0.28472016    -0.87200
H989        H  0.55116550  0.01055269  0.35478108    -0.05500
H990        H  0.52048180  0.04467307  0.14441752    -0.05600
C991        C  0.53920049  0.48886887  0.32288761     0.87900
C992        C  0.97707514  0.40686016  0.18342708     0.88500
C993        C  0.52998093  0.03592141  0.17687468     0.88500
H994        H  0.94839494  0.04737601  0.34309282    -0.05600
O995        O  0.89321668  0.43569023  0.33088921    -0.74600
Mg996      Mg  0.56529060  0.06793832  0.27858839     1.58000
H997        H  0.90268391  0.38799464  0.35606582    -0.05600
C998        C  0.56285044  0.39375236  0.28384999     0.93500
O999        O  0.63153725  0.02548362  0.22068674    -0.81900
C1000       C  0.64968800  0.06628223  0.22402078     0.93600
O1001       O  0.86381939  0.31972738  0.22368651    -0.81900
Mg1002     Mg  0.88618265  0.98215577  0.27822263     1.58200
O1003       O  0.58042128  0.43177530  0.26626862    -0.80200
O1004       O  0.92547806  0.08748085  0.21317192    -0.81900
C1005       C  0.65897052  0.33564387  0.42240728    -0.15600
C1006       C  0.63787851  0.30435732  0.38798963    -0.30700
H1007       H  0.67669467  0.36848506  0.40874401     0.13500
H1008       H  0.61857304  0.27166309  0.40072430     0.14000
C1009       C  0.64071743  0.31723568  0.17188026    -0.15600
C1010       C  0.66831641  0.34929708  0.13990762    -0.30700
H1011       H  0.61468519  0.28864113  0.15619062     0.13500
H1012       H  0.69272941  0.37927733  0.15560919     0.14000
C1013       C  0.83639527  0.16576490  0.35991722    -0.15600
C1014       C  0.80344849  0.14352129  0.32771320    -0.30700
H1015       H  0.86856832  0.18416561  0.34401912     0.13500
H1016       H  0.77130151  0.12503753  0.34284420     0.14000
C1017       C  0.81028006  0.14583596  0.11024131    -0.15600
C1018       C  0.83118270  0.17953567  0.07741021    -0.30700
H1019       H  0.79204582  0.11379082  0.09506293     0.13500
H1020       H  0.84991146  0.21098343  0.09215887     0.14000
C1021       C  0.84465477  0.18032750  0.51825048     0.30900
C1022       C  0.83885705  0.18266355  0.91797820     0.30900
C1023       C  0.86807905  0.15957350  0.49268176    -0.05300
C1024       C  0.79820686  0.15196568  0.49985844    -0.06100
C1025       C  0.86000550  0.22094092  0.48693479    -0.06000
C1026       C  0.86033998  0.16012681  0.94433507    -0.05300
C1027       C  0.79286360  0.15888726  0.94159778    -0.06100
C1028       C  0.85885139  0.22628957  0.94522536    -0.06000
C1029       C  0.88197724  0.13830541  0.93233542    -0.31400
N1030       N  0.89919775  0.12259273  0.46834753     0.15100
C1031       C  0.89131593  0.14086184  0.50722339    -0.31400
H1032       H  0.89953395  0.13821874  0.54388673     0.17100
C1033       C  0.75060704  0.13929930  0.92604222    -0.30300
N1034       N  0.72391229  0.12526093  0.96552631     0.13900
C1035       C  0.75780499  0.13126478  0.52130810    -0.30300
C1036       C  0.88118381  0.26980967  0.93326780    -0.30600
N1037       N  0.89058033  0.28620905  0.45428315     0.14400
H1038       H  0.89060271  0.28341555  0.89737907     0.17000
C1039       C  0.88109379  0.26424688  0.49635086    -0.30600
H1040       H  0.89052594  0.27926466  0.53132954     0.17000
H1041       H  0.75052962  0.13056715  0.55939954     0.17000
H1042       H  0.88896250  0.13040495  0.89728410     0.17100
H1043       H  0.74009904  0.13575896  0.88916001     0.17000
C1044       C  0.85340578  0.17151982  0.66780091     0.30900
C1045       C  0.85818066  0.17486607  0.76954932     0.30900
C1046       C  0.87939773  0.15282741  0.69154042    -0.05300
C1047       C  0.87479164  0.21723840  0.69155435    -0.06100
C1048       C  0.81085783  0.14803242  0.69725494    -0.06000
C1049       C  0.88145874  0.15443380  0.74231371    -0.05300
C1050       C  0.87703774  0.21794340  0.74275993    -0.06100
C1051       C  0.81350742  0.15021401  0.74790133    -0.06000
C1052       C  0.90378473  0.13435495  0.75560858    -0.31400
N1053       N  0.91561005  0.12098543  0.71539114     0.15100
C1054       C  0.90113738  0.13195431  0.67601405    -0.31400
H1055       H  0.90541733  0.12462345  0.63915355     0.17100
C1056       C  0.89880369  0.25980737  0.75721472    -0.30300
N1057       N  0.90981087  0.28515138  0.71765347     0.13900
C1058       C  0.89534312  0.26022456  0.67751853    -0.30300
C1059       C  0.77252799  0.12844302  0.76637623    -0.30600
N1060       N  0.74530527  0.11271907  0.72906581     0.14400
H1061       H  0.76295033  0.12380287  0.80407021     0.17000
C1062       C  0.76780308  0.12382925  0.68675594    -0.30600
H1063       H  0.75378788  0.11539431  0.65137393     0.17000
H1064       H  0.90039991  0.27282750  0.64124591     0.17000
H1065       H  0.91067041  0.12923950  0.79198558     0.17100
H1066       H  0.90598447  0.27121302  0.79394473     0.17000
C1067       C  0.67121195  0.33820938  0.58100206     0.29100
C1068       C  0.67117318  0.35013193  0.98029794     0.30900
C1069       C  0.64367329  0.35580042  0.55837679    -0.05300
C1070       C  0.71245542  0.36114089  0.54901874    -0.06100
C1071       C  0.64887192  0.29181474  0.55929737    -0.06000
C1072       C  0.64661893  0.36976392  0.00632031    -0.05300
C1073       C  0.71441815  0.37371838  0.00594116    -0.06100
C1074       C  0.65044230  0.30593421  0.00466689    -0.06000
C1075       C  0.62621719  0.39132507  0.99159847    -0.31400
N1076       N  0.60531262  0.38561131  0.53492365     0.15100
C1077       C  0.62344928  0.37824971  0.57378587    -0.31400
H1078       H  0.62276500  0.38918104  0.61001684     0.17100
C1079       C  0.75661236  0.39636259  0.99107650    -0.30300
N1080       N  0.77703600  0.39521445  0.51302509     0.13900
C1081       C  0.75635431  0.38419273  0.55661448    -0.30300
C1082       C  0.63070109  0.26473590  0.98805063    -0.30600
N1083       N  0.61242904  0.22262431  0.53845035     0.14400
H1084       H  0.62540648  0.25468944  0.95077702     0.17000
C1085       C  0.62761877  0.24970325  0.57659882    -0.30600
H1086       H  0.62220178  0.23908156  0.61368574     0.17000
H1087       H  0.77212147  0.39140342  0.59107621     0.17000
H1088       H  0.62221149  0.39837052  0.95481362     0.17100
H1089       H  0.76854823  0.40251705  0.95416216     0.17000
C1090       C  0.68234099  0.32858110  0.73017460     0.30900
C1091       C  0.68791102  0.33772043  0.83178519     0.30900
C1092       C  0.65865397  0.34937501  0.75442671    -0.05300
C1093       C  0.66512702  0.28743974  0.76078309    -0.06100
C1094       C  0.72790679  0.35577877  0.75095606    -0.06000
C1095       C  0.66143972  0.35469281  0.80523229    -0.05300
C1096       C  0.66782222  0.29144842  0.81132397    -0.06100
C1097       C  0.73100585  0.36077532  0.80173840    -0.06000
C1098       C  0.64217240  0.37886271  0.81627432    -0.31400
N1099       N  0.62784473  0.38680052  0.77499963     0.15100
C1100       C  0.63750038  0.36916570  0.73728237    -0.31400
H1101       H  0.63023337  0.37146212  0.70013239     0.17100
C1102       C  0.64973163  0.24990991  0.82978804    -0.30300
N1103       N  0.63619777  0.22205065  0.79212286     0.13900
C1104       C  0.64532363  0.24448381  0.75044033    -0.30300
C1105       C  0.77461682  0.38597793  0.81118010    -0.30600
N1106       N  0.79726903  0.39533535  0.76868236     0.14400
H1107       H  0.78883933  0.39628683  0.84628169     0.17000
C1108       C  0.76922208  0.37696766  0.73206814    -0.30600
H1109       H  0.77831624  0.37920200  0.69433051     0.17000
H1110       H  0.63750537  0.23004313  0.71505056     0.17000
H1111       H  0.64006185  0.39191450  0.85058311     0.17100
H1112       H  0.64589383  0.24064818  0.86737112     0.17000
O1113       O  0.94149856  0.02059550  0.52380543    -0.87500
C1114       C  0.93466864  0.45056732  0.93020724     0.88600
Mg1115     Mg  0.99289826  0.08552320  0.53092077     1.58100
O1116       O  0.97651668  0.42826199  0.51941262    -0.87200
O1117       O  0.91497801  0.46108027  0.56631061    -0.74500
C1118       C  0.67791356  0.10415601  0.96777232     0.93600
O1119       O  0.96873098  0.05920039  0.91948241    -0.74400
O1120       O  0.65957034  0.12624395  0.96118475    -0.81900
Mg1121     Mg  0.91125254  0.51160141  0.96993765     1.58000
C1122       C  0.58567187  0.41166947  0.53188751     0.93500
O1123       O  0.84374318  0.45479684  0.49300717    -0.80100
H1124       H  0.96315243  0.40651808  0.58640306    -0.05500
C1125       C  0.55623057  0.01035130  0.92966405     0.88500
O1126       O  0.52883608  0.06530206  0.58550822    -0.74600
O1127       O  0.92893921  0.46259877  0.96963725    -0.87400
O1128       O  0.54902391  0.39547706  0.51157285    -0.80200
C1129       C  0.91527646  0.33909778  0.97978557     0.93600
C1130       C  0.82246397  0.41501321  0.50465628     0.93500
Mg1131     Mg  0.59290650  0.00497691  0.54211964     1.58000
O1132       O  0.65754053  0.06552099  0.98359978    -0.80100
O1133       O  0.52696707  0.45647001  0.58037469    -0.74400
O1134       O  0.89694711  0.35955405  0.99575544    -0.80200
O1135       O  0.89293383  0.06206061  0.96874231    -0.81900
O1136       O  0.60809360  0.15669689  0.52610949    -0.80200
C1137       C  0.48877420  0.42964362  0.56801237     0.87900
O1138       O  0.57455586  0.05317199  0.54363772    -0.87400
O1139       O  0.55523481  0.49436259  0.97169062    -0.87500
O1140       O  0.56926524  0.04984085  0.92258541    -0.74500
Mg1141     Mg  0.91000292  0.41058116  0.51158803     1.58000
O1142       O  0.95592070  0.35759224  0.97275750    -0.81900
H1143       H  0.92079815  0.01520230  0.59191775    -0.05600
O1144       O  0.52365402  0.09361889  0.97056674    -0.87200
H1145       H  0.52321956  0.11004736  0.90228969    -0.05500
H1146       H  0.56204409  0.03925514  0.61275025    -0.05600
C1147       C  0.00735915  0.08882047  0.92628608     0.87900
C1148       C  0.92509996  0.50045084  0.56374369     0.88500
C1149       C  0.55641431  0.05311903  0.58190248     0.88500
H1150       H  0.54711020  0.48783904  0.90177465    -0.05600
O1151       O  0.96308276  0.43969450  0.92386592    -0.74600
Mg1152     Mg  0.58928520  0.10933538  0.96642174     1.58000
H1153       H  0.91530829  0.44992998  0.90067607    -0.05600
C1154       C  0.91419855  0.10223385  0.97715021     0.93500
O1155       O  0.54752450  0.15751079  0.54356109    -0.81900
C1156       C  0.58839757  0.17656336  0.53866699     0.93600
O1157       O  0.83994767  0.39180924  0.50714889    -0.81900
Mg1158     Mg  0.50755487  0.42768934  0.97442713     1.58200
O1159       O  0.95276019  0.12122468  0.99231512    -0.80200
O1160       O  0.60756026  0.45134514  0.54342397    -0.81900
O1161       O  0.54391548  0.45004058  0.72011487    -0.87500
C1162       C  0.95242209  0.43742647  0.81298991     0.88600
Mg1163     Mg  0.61117939  0.49738545  0.72075669     1.58100
O1164       O  0.94838195  0.48540362  0.70641866    -0.87200
O1165       O  0.98863836  0.42810076  0.66584919    -0.74500
C1166       C  0.61404774  0.17611542  0.79240413     0.93600
O1167       O  0.56262979  0.46239959  0.83143181    -0.74400
O1168       O  0.63553050  0.15707047  0.79860487    -0.81900
Mg1169     Mg  0.01487505  0.41490724  0.77584511     1.58000
C1170       C  0.93889604  0.09823787  0.71691388     0.93500
O1171       O  0.96921293  0.35147081  0.73615444    -0.80100
H1172       H  0.95883205  0.48369050  0.63652950    -0.05500
C1173       C  0.51636822  0.05553359  0.82770798     0.88500
O1174       O  0.60686557  0.05057990  0.67825031    -0.74600
O1175       O  0.96610620  0.43294147  0.77393388    -0.87400
O1176       O  0.91846090  0.05853721  0.72877622    -0.80200
C1177       C  0.84326159  0.42083669  0.76205213     0.93600
C1178       C  0.93072158  0.33090932  0.72049551     0.93500
Mg1179     Mg  0.53494767  0.09851262  0.72923999     1.58000
O1180       O  0.57522796  0.15648454  0.77790170    -0.80100
O1181       O  0.99496633  0.04520028  0.66540330    -0.74400
O1182       O  0.86382502  0.40260852  0.74624651    -0.80200
O1183       O  0.56463102  0.38877468  0.77948383    -0.81900
O1184       O  0.68051845  0.10521906  0.75540527    -0.80200
C1185       C  0.96655906  0.00553769  0.66749463     0.87900
O1186       O  0.58348989  0.08073291  0.72910232    -0.87400
O1187       O  0.00072440  0.05797387  0.77395382    -0.87500
O1188       O  0.55537040  0.06732176  0.83614257    -0.74500
Mg1189     Mg  0.92926908  0.41896650  0.70943262     1.58000
O1190       O  0.86197684  0.46130913  0.76904876    -0.81900
H1191       H  0.54771242  0.43585315  0.65187401    -0.05600
O1192       O  0.59918820  0.02054687  0.78757373    -0.87200
H1193       H  0.61253301  0.01731304  0.85617818    -0.05500
H1194       H  0.60284439  0.10374641  0.66255535    -0.05600
C1195       C  0.59345661  0.50070341  0.82539259     0.87900
C1196       C  0.02784095  0.44013052  0.67411909     0.88500
C1197       C  0.59851894  0.07998721  0.68926223     0.88500
H1198       H  0.99002049  0.05103573  0.84345800    -0.05600
O1199       O  0.94192534  0.46603233  0.81915838    -0.74600
Mg1200     Mg  0.61655293  0.08641522  0.79345922     1.58000
H1201       H  0.94999386  0.41677427  0.84228595    -0.05600
C1202       C  0.60497708  0.40928252  0.77091241     0.93500
O1203       O  0.68138181  0.04822298  0.72297377    -0.81900
C1204       C  0.70004295  0.08769138  0.73502803     0.93600
O1205       O  0.90878877  0.34902189  0.71242289    -0.81900
Mg1206     Mg  0.93317097  0.01138956  0.76894756     1.58200
O1207       O  0.62519985  0.44805243  0.75559595    -0.80200
O1208       O  0.97976781  0.11937353  0.71249128    -0.81900
C1209       C  0.67026735  0.35109729  0.92297788    -0.15600
C1210       C  0.69178844  0.33966595  0.88923623    -0.30700
H1211       H  0.64814821  0.36016006  0.90931935     0.13500
H1212       H  0.71275263  0.32881748  0.90354295     0.14000
C1213       C  0.67662492  0.31987099  0.67361502    -0.15600
C1214       C  0.67989588  0.34757345  0.63718777    -0.30700
H1215       H  0.66823306  0.28781161  0.66262809     0.13500
H1216       H  0.69058686  0.38053945  0.64778254     0.14000
C1217       C  0.83954951  0.18627987  0.86056330    -0.15600
C1218       C  0.86078756  0.17471340  0.82665555    -0.30700
H1219       H  0.82028314  0.19917883  0.84645449     0.13500
H1220       H  0.88131589  0.16371414  0.83978380     0.14000
C1221       C  0.84640136  0.16244376  0.61143337    -0.15600
C1222       C  0.85229130  0.19042984  0.57440651    -0.30700
H1223       H  0.83392920  0.12905437  0.60120779     0.13500
H1224       H  0.86363753  0.22334717  0.58480834     0.14000
C1225       C  0.83384478  0.68022105  0.02090858     0.30900
C1226       C  0.83252608  0.66738236  0.41814150     0.30900
C1227       C  0.85887029  0.66080917  0.99653065    -0.05300
C1228       C  0.79129458  0.65710146  0.99409956    -0.06100
C1229       C  0.85548392  0.72490300  0.99607047    -0.06000
C1230       C  0.85909674  0.65058879  0.44404321    -0.05300
C1231       C  0.79015014  0.64575053  0.44977043    -0.06100
C1232       C  0.85481057  0.71450399  0.43704512    -0.06000
C1233       C  0.87875979  0.62741054  0.43086320    -0.31400
N1234       N  0.89312818  0.62695713  0.97452565     0.15100
C1235       C  0.87939261  0.64019430  0.01309258    -0.31400
H1236       H  0.88294058  0.63394898  0.05036971     0.17100
C1237       C  0.74594127  0.62188861  0.44291564    -0.30300
N1238       N  0.72521798  0.61269158  0.48657290     0.13900
C1239       C  0.74893408  0.63536322  0.00822454    -0.30300
C1240       C  0.87676553  0.75592745  0.41742903    -0.30600
N1241       N  0.89149464  0.79356358  0.97330409     0.14400
H1242       H  0.88174487  0.76448943  0.37967623     0.17000
C1243       C  0.87584907  0.76678791  0.01192882    -0.30600
H1244       H  0.88044529  0.77736083  0.04901937     0.17000
H1245       H  0.73652041  0.62950966  0.04495018     0.17000
H1246       H  0.87925757  0.61494282  0.39541504     0.17100
H1247       H  0.72950076  0.61238885  0.40904394     0.17000
C1248       C  0.81175412  0.64882798  0.16895459     0.30900
C1249       C  0.80550278  0.64438531  0.27098354     0.30900
C1250       C  0.83022711  0.62346057  0.19504250    -0.05300
C1251       C  0.83487323  0.69219680  0.19712470    -0.06100
C1252       C  0.76541331  0.62704629  0.19222276    -0.06000
C1253       C  0.82657837  0.62096491  0.24597282    -0.05300
C1254       C  0.83113623  0.68897752  0.24805022    -0.06100
C1255       C  0.76290475  0.62558565  0.24313062    -0.06000
C1256       C  0.84445158  0.59706664  0.26094960    -0.31400
N1257       N  0.85943556  0.58561921  0.22164276     0.15100
C1258       C  0.85150125  0.60176314  0.18137991    -0.31400
H1259       H  0.86096654  0.59839515  0.14509312     0.17100
C1260       C  0.85333702  0.72939423  0.26671561    -0.30300
N1261       N  0.87096549  0.75742569  0.22983276     0.13900
C1262       C  0.86010790  0.73593546  0.18746689    -0.30300
C1263       C  0.71990586  0.60366734  0.25620756    -0.30600
N1264       N  0.69576292  0.59095173  0.21598993     0.14400
H1265       H  0.70681603  0.59618488  0.29260485     0.17000
C1266       C  0.72285566  0.60465237  0.17660835    -0.30600
H1267       H  0.71251399  0.59834524  0.13961052     0.17000
H1268       H  0.87002457  0.75204742  0.15309110     0.17000
H1269       H  0.84777544  0.58977967  0.29789402     0.17100
H1270       H  0.85519016  0.73815681  0.30422028     0.17000
C1271       C  0.66958311  0.84876549  0.07899175     0.29100
C1272       C  0.66142356  0.83050127  0.47598382     0.30900
C1273       C  0.64533498  0.86905044  0.05433158    -0.05300
C1274       C  0.71431398  0.87369643  0.05273370    -0.06100
C1275       C  0.65052390  0.80499781  0.05324343    -0.06000
C1276       C  0.63999898  0.85158547  0.50456582    -0.05300
C1277       C  0.70764711  0.85562500  0.49500514    -0.06100
C1278       C  0.64322248  0.78744648  0.50431239    -0.06000
C1279       C  0.61659705  0.87044524  0.49197156    -0.31400
N1280       N  0.61386425  0.90515610  0.02801862     0.15100
C1281       C  0.62563860  0.89239537  0.06835669    -0.31400
H1282       H  0.62098859  0.90017714  0.10487959     0.17100
C1283       C  0.74809423  0.87796587  0.47395662    -0.30300
N1284       N  0.78213951  0.90730869  0.02547815     0.13900
C1285       C  0.75706321  0.89382891  0.06610125    -0.30300
C1286       C  0.61892008  0.74447032  0.49324390    -0.30600
N1287       N  0.61894565  0.73819613  0.02652284     0.14400
H1288       H  0.60818996  0.73044359  0.45825113     0.17000
C1289       C  0.62949266  0.76235042  0.06703706    -0.30600
H1290       H  0.62163265  0.74966831  0.10338649     0.17000
H1291       H  0.76910742  0.89757451  0.10230486     0.17000
H1292       H  0.60791601  0.87391978  0.45579506     0.17100
H1293       H  0.75565691  0.88163963  0.43576380     0.17000
C1294       C  0.64338470  0.81923474  0.22613464     0.30900
C1295       C  0.64221704  0.81059550  0.32750532     0.30900
C1296       C  0.62272283  0.84038780  0.25652830    -0.05300
C1297       C  0.61914105  0.77298221  0.24709177    -0.06100
C1298       C  0.68731680  0.83716567  0.25091110    -0.06000
C1299       C  0.62145563  0.83595114  0.30724995    -0.05300
C1300       C  0.61893060  0.76852395  0.29760270    -0.06100
C1301       C  0.68671077  0.83329848  0.30178234    -0.06000
C1302       C  0.59922370  0.85550448  0.32532719    -0.31400
N1303       N  0.58864013  0.87220591  0.28752628     0.15100
C1304       C  0.60263213  0.86305525  0.24589907    -0.31400
H1305       H  0.59735732  0.87134497  0.21018993     0.17100
C1306       C  0.59739122  0.72477456  0.30733562    -0.30300
N1307       N  0.58384325  0.70306418  0.26516017     0.13900
C1308       C  0.59687802  0.73195046  0.22831748    -0.30300
C1309       C  0.72886017  0.85129822  0.31594476    -0.30600
N1310       N  0.75426174  0.86463623  0.27576125     0.14400
H1311       H  0.74027970  0.85476502  0.35238917     0.17000
C1312       C  0.72971164  0.85593315  0.23631518    -0.30600
H1313       H  0.74264590  0.86316692  0.19997422     0.17000
H1314       H  0.59175418  0.72361392  0.19055514     0.17000
H1315       H  0.59115154  0.85721936  0.36271956     0.17100
H1316       H  0.59228795  0.70966876  0.34235026     0.17000
O1317       O  0.95163940  0.53878557  0.03065646    -0.87500
C1318       C  0.95254153  0.95860580  0.41527116     0.88600
Mg1319     Mg  0.99951374  0.60572318  0.02931377     1.58100
O1320       O  0.98205014  0.94212348  0.03360950    -0.87200
O1321       O  0.92741862  0.98277269  0.07668314    -0.74500
C1322       C  0.67934103  0.59204596  0.49425151     0.93600
O1323       O  0.97191600  0.55402753  0.42046736    -0.74400
O1324       O  0.66051240  0.61334733  0.48539683    -0.81900
Mg1325     Mg  0.91169134  0.00294459  0.45585360     1.58000
C1326       C  0.59295738  0.93025038  0.02479350     0.93500
O1327       O  0.84910936  0.96598661  0.00660778    -0.80100
H1328       H  0.97703230  0.94247754  0.10441986    -0.05500
C1329       C  0.57676156  0.50312095  0.43633151     0.88500
O1330       O  0.54906024  0.59617657  0.08181068    -0.74600
O1331       O  0.93034470  0.95493764  0.45146926    -0.87400
O1332       O  0.55414107  0.91161993  0.01053605    -0.80200
C1333       C  0.91691118  0.83086181  0.45267679     0.93600
C1334       C  0.82796284  0.92740498  0.02223928     0.93500
Mg1335     Mg  0.59643583  0.52244764  0.03228310     1.58000
O1336       O  0.65877753  0.55336017  0.51048161    -0.80100
O1337       O  0.54043403  0.98368542  0.08047352    -0.74400
O1338       O  0.89717543  0.85130725  0.46252160    -0.80200
O1339       O  0.89181751  0.55477111  0.46453598    -0.81900
O1340       O  0.61094982  0.67215041  0.00633220    -0.80200
C1341       C  0.50089898  0.95520208  0.07701986     0.87900
O1342       O  0.58047421  0.57239760  0.03291549    -0.87400
O1343       O  0.56306178  0.98482305  0.47416582    -0.87500
O1344       O  0.58459378  0.54144672  0.43009964    -0.74500
Mg1345     Mg  0.91603819  0.92440265  0.03141134     1.58000
O1346       O  0.95791618  0.84947659  0.45079205    -0.81900
H1347       H  0.93962340  0.54370874  0.09899025    -0.05600
O1348       O  0.52237771  0.57546646  0.47416054    -0.87200
H1349       H  0.53078216  0.59517284  0.40593198    -0.05500
H1350       H  0.59763760  0.58612291  0.10159600    -0.05600
C1351       C  0.01106638  0.57856544  0.43093757     0.87900
C1352       C  0.93874113  0.02191946  0.06876457     0.88500
C1353       C  0.57718363  0.58538144  0.07298727     0.88500
H1354       H  0.58459501  0.98852162  0.40684819    -0.05600
O1355       O  0.97954209  0.94559843  0.41314892    -0.74600
Mg1356     Mg  0.58968109  0.59423496  0.48060342     1.58000
H1357       H  0.95024973  0.97535643  0.38453990    -0.05600
C1358       C  0.91497383  0.59453879  0.47445105     0.93500
O1359       O  0.55328213  0.67499061  0.03436369    -0.81900
C1360       C  0.59338973  0.69273069  0.02379546     0.93600
O1361       O  0.84567585  0.90504026  0.03021830    -0.81900
Mg1362     Mg  0.51188140  0.91920203  0.46721723     1.58200
O1363       O  0.95293891  0.61078010  0.49114018    -0.80200
O1364       O  0.61482675  0.97087198  0.03075495    -0.81900
O1365       O  0.49569464  0.92100895  0.22819424    -0.87500
C1366       C  0.90738060  0.90909448  0.32451733     0.88600
Mg1367     Mg  0.56103489  0.97164258  0.22566492     1.58100
O1368       O  0.90090915  0.95457575  0.21813527    -0.87200
O1369       O  0.94186950  0.89794557  0.17506890    -0.74500
C1370       C  0.56356553  0.65724703  0.25965886     0.93600
O1371       O  0.51180331  0.94838852  0.33587785    -0.74400
O1372       O  0.58552833  0.63908095  0.26772291    -0.81900
Mg1373     Mg  0.97246610  0.88815667  0.28884173     1.58000
C1374       C  0.88436129  0.56468121  0.22450272     0.93500
O1375       O  0.92839627  0.82311391  0.25302035    -0.80100
H1376       H  0.88536712  0.94920320  0.14930974    -0.05500
C1377       C  0.47135973  0.54979980  0.31817732     0.88500
O1378       O  0.53925502  0.50712404  0.17113068    -0.74600
O1379       O  0.92180923  0.90387214  0.28612651    -0.87400
O1380       O  0.86633000  0.52641747  0.24146305    -0.80200
C1381       C  0.79990933  0.88970888  0.27351701     0.93600
C1382       C  0.89059729  0.80258925  0.23566879     0.93500
Mg1383     Mg  0.47594764  0.56891772  0.21382070     1.58000
O1384       O  0.52456184  0.63607431  0.24563826    -0.80100
O1385       O  0.93025000  0.50839088  0.17111433    -0.74400
O1386       O  0.82116520  0.87115501  0.26188059    -0.80200
O1387       O  0.52332176  0.87091107  0.29695152    -0.81900
O1388       O  0.62863626  0.58485093  0.23106614    -0.80200
C1389       C  0.90239080  0.46940808  0.17952547     0.87900
O1390       O  0.52445888  0.55104673  0.21152053    -0.87400
O1391       O  0.95147251  0.53053612  0.27801782    -0.87500
O1392       O  0.51079669  0.56147614  0.32413160    -0.74500
Mg1393     Mg  0.88481852  0.88873014  0.22218674     1.58000
O1394       O  0.81720466  0.93028284  0.27764943    -0.81900
H1395       H  0.50010274  0.90509878  0.16042837    -0.05600
O1396       O  0.54685559  0.50198174  0.28101985    -0.87200
H1397       H  0.55443993  0.51207518  0.35080474    -0.05500
H1398       H  0.51562619  0.54183447  0.14122693    -0.05600
C1399       C  0.53797992  0.98769323  0.32620970     0.87900
C1400       C  0.98041957  0.90735128  0.18303584     0.88500
C1401       C  0.52682366  0.53450441  0.17338884     0.88500
H1402       H  0.94760120  0.54794352  0.34410727    -0.05600
O1403       O  0.89568416  0.93710128  0.32868924    -0.74600
Mg1404     Mg  0.56580199  0.56863907  0.27346030     1.58000
H1405       H  0.90553549  0.89007182  0.35551251    -0.05600
C1406       C  0.56367320  0.89314364  0.28771893     0.93500
O1407       O  0.63052010  0.52503501  0.21483843    -0.81900
C1408       C  0.64928785  0.56593330  0.21826090     0.93600
O1409       O  0.86835797  0.82016361  0.22629818    -0.81900
Mg1410     Mg  0.88423867  0.48130572  0.28139503     1.58200
O1411       O  0.58156523  0.93157676  0.27115688    -0.80200
O1412       O  0.92453112  0.58625124  0.21449495    -0.81900
C1413       C  0.65929910  0.83474678  0.41899628    -0.15600
C1414       C  0.64140449  0.80346048  0.38401080    -0.30700
H1415       H  0.67462186  0.86774555  0.40590421     0.13500
H1416       H  0.62563190  0.77042299  0.39563343     0.14000
C1417       C  0.64014564  0.82221426  0.16908490    -0.15600
C1418       C  0.67187331  0.84886938  0.13616527    -0.30700
H1419       H  0.60861308  0.80053536  0.15445068     0.13500
H1420       H  0.70248106  0.87253476  0.15053352     0.14000
C1421       C  0.83397512  0.66364687  0.36088234    -0.15600
C1422       C  0.80094257  0.64316297  0.32831231    -0.30700
H1423       H  0.86634252  0.68054320  0.34522863     0.13500
H1424       H  0.76845347  0.62638002  0.34275495     0.14000
C1425       C  0.81378625  0.64732820  0.11122776    -0.15600
C1426       C  0.83158730  0.68121547  0.07833574    -0.30700
H1427       H  0.79887088  0.61520025  0.09598827     0.13500
H1428       H  0.84502262  0.71294799  0.09285718     0.14000
C1429       C  0.84191650  0.67908197  0.51902745     0.30900
C1430       C  0.83872593  0.68247231  0.91869772     0.30900
C1431       C  0.86438150  0.65725854  0.49419307    -0.05300
C1432       C  0.79540515  0.65152802  0.50046035    -0.06100
C1433       C  0.85866833  0.71966158  0.48740330    -0.06000
C1434       C  0.86104924  0.66096501  0.94528988    -0.05300
C1435       C  0.79307471  0.65832452  0.94312472    -0.06100
C1436       C  0.85843541  0.72636447  0.94521161    -0.06000
C1437       C  0.88180385  0.63840280  0.93328003    -0.31400
N1438       N  0.89645667  0.62133038  0.47072139     0.15100
C1439       C  0.88804309  0.63933451  0.50931599    -0.31400
H1440       H  0.89660581  0.63737860  0.54602706     0.17100
C1441       C  0.75058682  0.63765035  0.92839060    -0.30300
N1442       N  0.72451868  0.62366729  0.96836739     0.13900
C1443       C  0.75489627  0.63062510  0.52169046    -0.30300
C1444       C  0.88154982  0.76961065  0.93238541    -0.30600
N1445       N  0.89247983  0.78473776  0.45419333     0.14400
H1446       H  0.89097459  0.78261441  0.89625199     0.17000
C1447       C  0.88180569  0.76298532  0.49647109    -0.30600
H1448       H  0.89151653  0.77807368  0.53137259     0.17000
H1449       H  0.74742798  0.62966289  0.55978237     0.17000
H1450       H  0.88757390  0.62949372  0.89800901     0.17100
H1451       H  0.73947538  0.63343868  0.89172205     0.17000
C1452       C  0.85254034  0.67093115  0.66781446     0.30900
C1453       C  0.85802436  0.67506487  0.76951169     0.30900
C1454       C  0.87781937  0.65148619  0.69150758    -0.05300
C1455       C  0.87506576  0.71689252  0.69083332    -0.06100
C1456       C  0.81021588  0.64852938  0.69749283    -0.06000
C1457       C  0.88031858  0.65344283  0.74224221    -0.05300
C1458       C  0.87774780  0.71819944  0.74200595    -0.06100
C1459       C  0.81303680  0.65100858  0.74809721    -0.06000
C1460       C  0.90261548  0.63312850  0.75520954    -0.31400
N1461       N  0.91401810  0.61945003  0.71481321     0.15100
C1462       C  0.89913899  0.63027006  0.67570009    -0.31400
H1463       H  0.90314910  0.62290267  0.63878017     0.17100
C1464       C  0.90021750  0.76049946  0.75539155    -0.30300
N1465       N  0.91105544  0.78533398  0.71525780     0.13900
C1466       C  0.89601741  0.75965973  0.67577389    -0.30300
C1467       C  0.77192459  0.62905028  0.76649400    -0.30600
N1468       N  0.74469224  0.61301041  0.72912117     0.14400
H1469       H  0.76229640  0.62420085  0.80416261     0.17000
C1470       C  0.76723797  0.62411236  0.68691362    -0.30600
H1471       H  0.75331926  0.61520838  0.65151110     0.17000
H1472       H  0.90082752  0.77162558  0.63925152     0.17000
H1473       H  0.91005886  0.62840388  0.79149461     0.17100
H1474       H  0.90774268  0.77253668  0.79185584     0.17000
C1475       C  0.67170215  0.83651187  0.57730463     0.29100
C1476       C  0.67088532  0.84967458  0.97705432     0.30900
C1477       C  0.64530326  0.85544260  0.55488077    -0.05300
C1478       C  0.71300787  0.85841424  0.54524816    -0.06100
C1479       C  0.64802489  0.79004440  0.55544016    -0.06000
C1480       C  0.64578977  0.86882168  0.00332309    -0.05300
C1481       C  0.71456694  0.87453428  0.00176232    -0.06100
C1482       C  0.65161759  0.80576511  0.00228477    -0.06000
C1483       C  0.62595392  0.89103500  0.98864383    -0.31400
N1484       N  0.60805756  0.88659993  0.53207322     0.15100
C1485       C  0.62579306  0.87843731  0.57071320    -0.31400
H1486       H  0.62505102  0.88891875  0.60715576     0.17100
C1487       C  0.75675183  0.89583153  0.98632907    -0.30300
N1488       N  0.77766380  0.89355316  0.50926512     0.13900
C1489       C  0.75692395  0.88170567  0.55280855    -0.30300
C1490       C  0.63218990  0.76404489  0.98711798    -0.30600
N1491       N  0.60873084  0.72097018  0.53432112     0.14400
H1492       H  0.62636489  0.75303467  0.95019850     0.17000
C1493       C  0.62569707  0.74779979  0.57246540    -0.30600
H1494       H  0.62087358  0.73691656  0.60941701     0.17000
H1495       H  0.77267463  0.88898736  0.58728209     0.17000
H1496       H  0.62194825  0.89800762  0.95182625     0.17100
H1497       H  0.76833193  0.90101087  0.94929239     0.17000
C1498       C  0.68118950  0.82784580  0.72703647     0.30900
C1499       C  0.68753764  0.83763108  0.82849215     0.30900
C1500       C  0.65825432  0.84955043  0.75131399    -0.05300
C1501       C  0.66358005  0.78679924  0.75805002    -0.06100
C1502       C  0.72709015  0.85475907  0.74735162    -0.06000
C1503       C  0.66137201  0.85502114  0.80207052    -0.05300
C1504       C  0.66679661  0.79114446  0.80848551    -0.06100
C1505       C  0.73048789  0.86013812  0.79807074    -0.06000
C1506       C  0.64245443  0.87947430  0.81341240    -0.31400
N1507       N  0.62784701  0.88747453  0.77233641     0.15100
C1508       C  0.63731594  0.86975215  0.73442937    -0.31400
H1509       H  0.63001547  0.87212031  0.69730139     0.17100
C1510       C  0.64868228  0.74964957  0.82729977    -0.30300
N1511       N  0.63446422  0.72141352  0.78993933     0.13900
C1512       C  0.64329824  0.74366492  0.74813103    -0.30300
C1513       C  0.77414135  0.88558969  0.80719299    -0.30600
N1514       N  0.79669330  0.89471595  0.76464066     0.14400
H1515       H  0.78847222  0.89633923  0.84217728     0.17000
C1516       C  0.76843171  0.87599691  0.72820396    -0.30600
H1517       H  0.77735240  0.87817480  0.69041423     0.17000
H1518       H  0.63513622  0.72895433  0.71290226     0.17000
H1519       H  0.64068930  0.89245502  0.84792783     0.17100
H1520       H  0.64537937  0.74070733  0.86495273     0.17000
O1521       O  0.94080419  0.52165790  0.52658615    -0.87500
C1522       C  0.93614087  0.95040650  0.92807966     0.88600
Mg1523     Mg  0.99205391  0.58687444  0.53227164     1.58100
O1524       O  0.97768850  0.92701793  0.51794673    -0.87200
O1525       O  0.91591849  0.96036561  0.56411143    -0.74500
C1526       C  0.67862874  0.60275317  0.97131791     0.93600
O1527       O  0.96714634  0.55787936  0.92042742    -0.74400
O1528       O  0.66036068  0.62470816  0.96355034    -0.81900
Mg1529     Mg  0.91258006  0.01177589  0.96700435     1.58000
C1530       C  0.58825907  0.91255713  0.52983898     0.93500
O1531       O  0.84423715  0.95346585  0.48824316    -0.80100
H1532       H  0.96449938  0.90460242  0.58473803    -0.05500
C1533       C  0.55845674  0.50966469  0.93128856     0.88500
O1534       O  0.52633122  0.56532723  0.58355758    -0.74600
O1535       O  0.93103150  0.96314407  0.96732921    -0.87400
O1536       O  0.55111259  0.89618684  0.51064579    -0.80200
C1537       C  0.91716839  0.83945011  0.97761565     0.93600
C1538       C  0.82324401  0.91385173  0.50107145     0.93500
Mg1539     Mg  0.59047768  0.50442896  0.54266265     1.58000
O1540       O  0.65832979  0.56458828  0.98843992    -0.80100
O1541       O  0.52923738  0.95600561  0.57930879    -0.74400
O1542       O  0.89898310  0.86018504  0.99298567    -0.80200
O1543       O  0.89198580  0.56201208  0.97172516    -0.81900
O1544       O  0.60430088  0.65470212  0.52395329    -0.80200
C1545       C  0.49086402  0.92937478  0.56719896     0.87900
O1546       O  0.57169390  0.55223836  0.54227246    -0.87400
O1547       O  0.55421247  0.99498157  0.96976378    -0.87500
O1548       O  0.57115725  0.54905399  0.92383591    -0.74500
Mg1549     Mg  0.91127370  0.90962529  0.51019386     1.58000
O1550       O  0.95783890  0.85757041  0.97087623    -0.81900
H1551       H  0.92108723  0.51611055  0.59516433    -0.05600
O1552       O  0.52499229  0.59329344  0.97161586    -0.87200
H1553       H  0.52501817  0.60862304  0.90281081    -0.05500
H1554       H  0.56014264  0.54026815  0.61180934    -0.05600
C1555       C  0.00601005  0.58743989  0.92666728     0.87900
C1556       C  0.92540686  0.99950050  0.56091485     0.88500
C1557       C  0.55398415  0.55319295  0.58043916     0.88500
H1558       H  0.54380475  0.98864568  0.90010920    -0.05600
O1559       O  0.96427892  0.93915829  0.92168611    -0.74600
Mg1560     Mg  0.59046786  0.60843047  0.96814436     1.58000
H1561       H  0.91627177  0.94922524  0.89887517    -0.05600
C1562       C  0.91398776  0.60240853  0.97813938     0.93500
O1563       O  0.54346229  0.65597861  0.53767136    -0.81900
C1564       C  0.58442968  0.67487978  0.53434371     0.93600
O1565       O  0.84122334  0.89120956  0.50548404    -0.81900
Mg1566     Mg  0.50746241  0.92805168  0.97291614     1.58200
O1567       O  0.95305914  0.62148269  0.99144529    -0.80200
O1568       O  0.61031273  0.95225595  0.54110490    -0.81900
O1569       O  0.54377337  0.95249979  0.71973775    -0.87500
C1570       C  0.95140236  0.93606928  0.81075700     0.88600
Mg1571     Mg  0.61141414  0.99885712  0.72059982     1.58100
O1572       O  0.94904616  0.98669208  0.70547401    -0.87200
O1573       O  0.99030331  0.93090256  0.66357824    -0.74500
C1574       C  0.61230836  0.67534393  0.79049935     0.93600
O1575       O  0.56123008  0.96258760  0.83094357    -0.74400
O1576       O  0.63367903  0.65625860  0.79745261    -0.81900
Mg1577     Mg  0.01515760  0.91520013  0.77358584     1.58000
C1578       C  0.93769327  0.59697912  0.71570734     0.93500
O1579       O  0.97044186  0.85204380  0.73287714    -0.80100
H1580       H  0.95914707  0.98679057  0.63531260    -0.05500
C1581       C  0.51505307  0.55342041  0.82790290     0.88500
O1582       O  0.60486030  0.54786435  0.67776056    -0.74600
O1583       O  0.96593216  0.93266626  0.77175294    -0.87400
O1584       O  0.91769552  0.55740688  0.72804472    -0.80200
C1585       C  0.84277582  0.92047879  0.75816441     0.93600
C1586       C  0.93204739  0.83130413  0.71700031     0.93500
Mg1587     Mg  0.53284109  0.59630163  0.72843726     1.58000
O1588       O  0.57363696  0.65555511  0.77549259    -0.80100
O1589       O  0.99429619  0.54290293  0.66493673    -0.74400
O1590       O  0.86365561  0.90259595  0.74213657    -0.80200
O1591       O  0.56447189  0.88953058  0.77718595    -0.81900
O1592       O  0.67940734  0.60493732  0.75430386    -0.80200
C1593       C  0.96605734  0.50326148  0.66808449     0.87900
O1594       O  0.58167975  0.57858357  0.72840462    -0.87400
O1595       O  0.00129352  0.55867794  0.77207201    -0.87500
O1596       O  0.55417091  0.56513209  0.83568652    -0.74500
Mg1597     Mg  0.93011955  0.91999942  0.70652816     1.58000
O1598       O  0.86139882  0.96080243  0.76637204    -0.81900
H1599       H  0.54816648  0.93790713  0.65201916    -0.05600
O1600       O  0.59894578  0.51974581  0.78699561    -0.87200
H1601       H  0.61425194  0.51769266  0.85509266    -0.05500
H1602       H  0.60029872  0.60064677  0.66148339    -0.05600
C1603       C  0.59245375  0.00086485  0.82580536     0.87900
C1604       C  0.02933414  0.94278267  0.67258018     0.88500
C1605       C  0.59636030  0.57727477  0.68849896     0.88500
H1606       H  0.99028437  0.55726061  0.84127803    -0.05600
O1607       O  0.94040602  0.96424279  0.81740760    -0.74600
Mg1608     Mg  0.61540309  0.58539451  0.79254479     1.58000
H1609       H  0.94856961  0.91482714  0.83964667    -0.05600
C1610       C  0.60485982  0.91000094  0.76872133     0.93500
O1611       O  0.68114645  0.54793467  0.72313969    -0.81900
C1612       C  0.69939333  0.58754206  0.73475466     0.93600
O1613       O  0.91022866  0.84949132  0.70814754    -0.81900
Mg1614     Mg  0.93369262  0.51179132  0.76926595     1.58200
O1615       O  0.62505562  0.94891963  0.75406042    -0.80200
O1616       O  0.97853667  0.61820842  0.71004387    -0.81900
C1617       C  0.66912771  0.84988584  0.91973616    -0.15600
C1618       C  0.69182565  0.84002396  0.88586872    -0.30700
H1619       H  0.64546230  0.85694356  0.90617405     0.13500
H1620       H  0.71396867  0.83062560  0.90002108     0.14000
C1621       C  0.67471715  0.81836274  0.67064230    -0.15600
C1622       C  0.68065947  0.84632267  0.63342168    -0.30700
H1623       H  0.66342629  0.78550544  0.66039046     0.13500
H1624       H  0.69362367  0.87984254  0.64333717     0.14000
C1625       C  0.83893925  0.68557391  0.86108916    -0.15600
C1626       C  0.86086266  0.67503404  0.82682444    -0.30700
H1627       H  0.81883686  0.69759376  0.84712115     0.13500
H1628       H  0.88214616  0.66464629  0.83998936     0.14000
C1629       C  0.84485639  0.66152253  0.61172666    -0.15600
C1630       C  0.84977672  0.68930879  0.57496183    -0.30700
H1631       H  0.83246169  0.62812971  0.60157402     0.13500
H1632       H  0.86070806  0.72213319  0.58530307     0.14000
loop_ 
_geom_bond_atom_site_label_1 
_geom_bond_atom_site_label_2 
_geom_bond_distance 
_geom_bond_site_symmetry_2 
_ccdc_geom_bond_type 
C1            C3   1.529       .  S
C1            C5   1.543       .  S
C1            C4   1.530   1_554  S
C1          C202   1.592       .  S
C2            C6   1.544       .  S
C2            C8   1.558       .  S
C2            C7   1.556       .  S
C2          C197   1.598       .  S
C3           C11   1.364       .  A
C3          C210   1.422   1_554  A
C4           C15   1.363   1_556  A
C4          C211   1.414       .  A
C5           C19   1.374       .  A
C5          C212   1.411   1_554  A
C6            C9   1.378       .  A
C6          C207   1.418       .  A
C7           C13   1.385       .  A
C7          C208   1.419       .  A
C8           C16   1.391       .  A
C8          C209   1.414       .  A
C9           H22   1.082       .  S
C9          N214   1.354       .  A
N10          C11   1.349   1_556  A
N10         C213   1.354       .  A
N10         C338   1.416       .  S
C11          H12   1.083       .  S
C13          H23   1.076       .  S
C13          N14   1.357       .  A
N14         C219   1.352       .  A
N14          C98   1.426       .  S
C15          H21   1.083       .  S
C15         N218   1.354   1_554  A
C16          H18   1.081       .  S
C16         N221   1.362       .  A
N17          C19   1.353   1_556  A
N17         C220   1.362       .  A
N17         C313   1.433       .  S
C19          H20   1.082       .  S
C24          C26   1.554       .  S
C24          C28   1.554       .  S
C24          C27   1.561       .  S
C24         C201   1.600       .  S
C25          C29   1.535       .  S
C25          C31   1.546       .  S
C25          C30   1.521       .  S
C25         C198   1.593       .  S
C26          C34   1.382       .  A
C26          C29   1.416       .  A
C27          C38   1.386       .  A
C27          C30   1.419       .  A
C28          C42   1.388       .  A
C28          C31   1.414       .  A
C29          C32   1.369       .  A
C30          C36   1.359       .  A
C31          C39   1.373       .  A
C32          H45   1.083       .  S
C32          N33   1.356       .  A
N33          C34   1.360       .  A
N33         C150   1.427       .  S
C34          H35   1.083       .  S
C36          H46   1.082       .  S
C36          N37   1.343       .  A
N37          C38   1.355       .  A
N37         C158   1.413       .  S
C38          H44   1.074       .  S
C39          H41   1.082       .  S
C39          N40   1.356       .  A
N40          C42   1.361       .  A
N40         C184   1.434       .  S
C42          H43   1.082       .  S
C47          C49   1.551       .  S
C47          C51   1.558       .  S
C47          C50   1.555       .  S
C47         C194   1.594       .  S
C48          C52   1.527       .  S
C48          C54   1.546       .  S
C48          C53   1.542       .  S
C48         C189   1.596       .  S
C49          C57   1.389       .  A
C49         C256   1.410       .  A
C50          C61   1.385       .  A
C50         C257   1.414       .  A
C51          C65   1.383       .  A
C51         C258   1.420       .  A
C52          C55   1.365       .  A
C52         C253   1.408       .  A
C53          C59   1.371       .  A
C53         C254   1.420       .  A
C54          C62   1.373       .  A
C54         C255   1.418       .  A
C55          H68   1.083       .  S
C55         N260   1.351       .  A
N56          C57   1.362       .  A
N56         C259   1.354   1_554  A
N56         C102   1.433       .  S
C57          H58   1.082       .  S
C59          H69   1.082       .  S
C59         N264   1.351       .  A
N60          C61   1.360       .  A
N60         C263   1.357   1_554  A
N60         C110   1.431       .  S
C61          H67   1.082       .  S
C62          H64   1.079       .  S
C62         N267   1.356       .  A
N63          C65   1.356       .  A
N63         C266   1.351   1_554  A
N63         C136   1.421       .  S
C65          H66   1.079       .  S
C70          C72   1.536       .  S
C70          C74   1.535       .  S
C70          C73   1.541       .  S
C70         C193   1.591       .  S
C71          C75   1.555       .  S
C71          C77   1.540       .  S
C71          C76   1.553       .  S
C71         C190   1.590       .  S
C72          C80   1.364       .  A
C72          C75   1.419       .  A
C73          C84   1.376       .  A
C73          C76   1.408       .  A
C74          C88   1.365       .  A
C74          C77   1.417       .  A
C75          C78   1.385       .  A
C76          C82   1.386       .  A
C77          C85   1.375       .  A
C78          H91   1.082       .  S
C78          N79   1.362       .  A
N79          C80   1.354       .  A
N79         C182   1.426       .  S
C80          H81   1.083       .  S
C82          H92   1.082       .  S
C82          N83   1.360       .  A
N83          C84   1.353       .  A
N83         C146   1.431       .  S
C84          H90   1.082       .  S
C85          H87   1.081       .  S
C85          N86   1.353       .  A
N86          C88   1.354       .  A
N86         C157   1.415       .  S
C88          H89   1.083       .  S
O93         Mg95   2.138       .  S
O93        Mg713   2.126   1_554  S
O93         C536   1.218       .  S
C94         H133   1.074       .  S
C94         O107   1.259       .  A
C94         O131   1.263       .  A
Mg95       O1144   2.108   1_554  S
Mg95        O343   2.283   1_554  S
Mg95        O951   2.242       .  S
Mg95        O922   2.280       .  S
O96        Mg121   2.128       .  S
O96       Mg1158   2.149   1_554  S
O96         C933   1.231       .  S
O97         C128   1.271       .  A
O97        Mg121   2.298       .  S
C98         O100   1.272       .  A
C98         O112   1.276       .  A
O99         C127   1.266       .  A
O99        Mg509   2.288       .  S
O100       Mg132   2.259       .  S
Mg101       O705   2.126       .  S
Mg101       O507   2.294       .  S
Mg101       O523   2.221       .  S
Mg101       O307   2.330       .  S
Mg101       O107   2.159       .  S
C102        O140   1.273       .  A
C102        O108   1.274       .  A
O103        C110   1.274       .  A
O103       Mg305   2.306   1_554  S
H104        C933   1.066       .  S
C105        H538   1.080   1_545  S
C105        O527   1.228   1_545  S
C105        O120   1.269       .  A
O106        C129   1.266       .  A
O106       Mg911   2.276   1_455  S
O107       Mg325   2.183       .  S
O108       Mg342   2.308   1_554  S
C109        N221   1.433       .  S
C109        O122   1.274       .  A
C109        O114   1.272       .  A
C110        O137   1.272       .  A
Mg111       O118   2.134       .  S
Mg111       O731   2.137   1_544  S
Mg111       O316   2.277   1_554  S
Mg111       O521   2.257   1_545  S
Mg111       O548   2.280   1_545  S
O112       Mg315   2.312       .  S
O113        C117   1.267   1_455  A
O113       Mg519   2.257       .  S
O114       Mg325   2.294       .  S
O115        C134   1.273       .  A
O115       Mg509   2.254       .  S
O116        C136   1.277       .  A
O116       Mg336   2.300   1_554  S
C117        H920   1.068       .  S
C117        O912   1.232       .  S
O118       Mg336   2.141   1_554  S
O118        C129   1.229       .  S
O119       Mg138   2.120       .  S
O119       Mg723   2.112       .  S
O119        C513   1.228       .  S
O120       Mg132   2.285       .  S
Mg121       O311   2.146   1_554  S
Mg121       O137   2.273       .  S
Mg121       O318   2.331       .  S
O122       Mg954   2.298       .  S
H123        C536   1.075       .  S
O124       Mg132   2.160       .  S
O124      Mg1115   2.144   1_455  S
O124        C943   1.225       .  S
H125        C943   1.081       .  S
H126        C129   1.081       .  S
C127        H941   1.081       .  S
C127        O940   1.226       .  S
C128        H531   1.074       .  S
C128        O501   1.217       .  S
H130        C513   1.081       .  S
O131       Mg954   2.246       .  S
Mg132       O322   2.155       .  S
Mg132       O320   2.286       .  S
C134        N214   1.421       .  S
C134        O139   1.276       .  A
O135        C136   1.274       .  A
O135       Mg911   2.249   1_455  S
Mg138      O1116   2.117   1_455  S
Mg138       O312   2.321       .  S
Mg138       O938   2.280   1_455  S
Mg138       O947   2.260   1_455  S
O139       Mg299   2.292       .  S
O140       Mg519   2.289       .  S
O141       Mg143   2.140   1_655  S
O141       Mg965   2.129       .  S
O141        C992   1.230       .  S
C142        H181   1.081       .  S
C142        O155   1.229       .  S
C142        O179   1.269       .  A
Mg143       O580   2.136       .  S
Mg143       O187   2.299       .  S
Mg143       O591   2.298       .  S
Mg143       O562   2.263       .  S
O144       Mg169   2.120       .  S
O144       Mg594   2.134       .  S
O144        C573   1.219       .  S
O145        C176   1.269       .  A
O145       Mg169   2.288       .  S
C146        O148   1.271       .  A
C146        O160   1.278       .  A
O147        C175   1.267       .  A
O147       Mg965   2.268   1_455  S
O148       Mg180   2.259       .  S
Mg149       O155   2.143       .  S
Mg149       O957   2.117       .  S
Mg149       O151   2.290       .  S
Mg149       O963   2.278       .  S
Mg149       O979   2.284       .  S
C150        O188   1.269       .  A
C150        O156   1.276       .  A
O151        C158   1.276       .  A
H152        C573   1.081       .  S
C153        H994   1.075       .  S
C153        O983   1.220       .  S
C153        O168   1.269   1_655  A
O154        C177   1.268       .  A
O154       Mg551   2.261   1_545  S
O155       Mg169   2.136       .  S
O156       Mg186   2.315   1_545  S
C157        O170   1.271       .  A
C157        O162   1.273       .  A
C158        O185   1.270       .  A
Mg159       O166   2.137   1_655  S
Mg159       O983   2.135       .  S
Mg159       O160   2.330   1_655  S
Mg159       O977   2.285       .  S
Mg159      O1004   2.262       .  S
O161        C165   1.261   1_545  A
O161       Mg975   2.267       .  S
O162       Mg169   2.281       .  S
O163        C182   1.273       .  A
O163       Mg965   2.267   1_455  S
O164        C184   1.274       .  A
O164       Mg180   2.310       .  S
C165        H560   1.080       .  S
C165        O552   1.219       .  S
O166       Mg180   2.166       .  S
O166        C177   1.235       .  S
O167       Mg186   2.156   1_545  S
O167       Mg975   2.147       .  S
O167        C969   1.222       .  S
O168       Mg180   2.303       .  S
Mg169       O185   2.225       .  S
O170       Mg594   2.239       .  S
H171        C992   1.081       .  S
O172       Mg180   2.132       .  S
O172       Mg551   2.134   1_545  S
O172        C583   1.225   1_545  S
H173        C583   1.068   1_545  S
H174        C177   1.071       .  S
C175        H581   1.066       .  S
C175        O580   1.226       .  S
C176        H987   1.081       .  S
C176        O957   1.229       .  S
H178        C969   1.075       .  S
O179       Mg594   2.289       .  S
C182        O187   1.276       .  A
O183        C184   1.272       .  A
O183       Mg551   2.285   1_545  S
Mg186       O552   2.133       .  S
Mg186       O578   2.238       .  S
Mg186       O587   2.284       .  S
O188       Mg975   2.246       .  S
C189        C190   1.381       .  D
C189        H191   1.086       .  S
C190        H192   1.078       .  S
C193        C194   1.381       .  D
C193        H195   1.076       .  S
C194        H196   1.085       .  S
C197        C198   1.387       .  D
C197        H199   1.085       .  S
C198        H200   1.071       .  S
C201        C202   1.384       .  D
C201        H203   1.085       .  S
C202        H204   1.065       .  S
C205        C207   1.548       .  S
C205        C209   1.540       .  S
C205        C208   1.542       .  S
C205        C406   1.604       .  S
C206        C210   1.562       .  S
C206        C212   1.553       .  S
C206        C211   1.552       .  S
C206        C401   1.598       .  S
C207        C215   1.374       .  A
C208        C219   1.373       .  A
C209        C223   1.369       .  A
C210        C213   1.385       .  A
C211        C217   1.384       .  A
C212        C220   1.387       .  A
C213        H226   1.073       .  S
N214        C215   1.349       .  A
C215        H216   1.082       .  S
C217        H227   1.082       .  S
C217        N218   1.359       .  A
N218        C302   1.424       .  S
C219        H225   1.082       .  S
C220        H222   1.083       .  S
N221        C223   1.355       .  A
C223        H224   1.083       .  S
C228        C230   1.558       .  S
C228        C232   1.543       .  S
C228        C231   1.548       .  S
C228        C405   1.587       .  S
C229        C233   1.543       .  S
C229        C235   1.533       .  S
C229        C234   1.533       .  S
C229        C402   1.590       .  S
C230        C238   1.392       .  A
C230        C233   1.408       .  A
C231        C242   1.379       .  A
C231        C234   1.419       .  A
C232        C246   1.375       .  A
C232        C235   1.415       .  A
C233        C236   1.376       .  A
C234        C240   1.361       .  A
C235        C243   1.366       .  A
C236        H249   1.082       .  S
C236        N237   1.354       .  A
N237        C238   1.361       .  A
N237        C354   1.434       .  S
C238        H239   1.082       .  S
C240        H250   1.083       .  S
C240        N241   1.353       .  A
N241        C242   1.359       .  A
N241        C362   1.419       .  S
C242        H248   1.082       .  S
C243        H245   1.082       .  S
C243        N244   1.353       .  A
N244        C246   1.357       .  A
N244        C388   1.419       .  S
C246        H247   1.082       .  S
C251        C253   1.555       .  S
C251        C255   1.547       .  S
C251        C254   1.566       .  S
C251        C398   1.597       .  S
C252        C256   1.545   1_556  S
C252        C258   1.533   1_556  S
C252        C257   1.537   1_556  S
C252        C393   1.593       .  S
C253        C261   1.388       .  A
C254        C265   1.393       .  A
C255        C269   1.380       .  A
C256        C259   1.374   1_554  A
C257        C263   1.370   1_554  A
C258        C266   1.366   1_554  A
C259        H272   1.082       .  S
N260        C261   1.363       .  A
N260        C306   1.428       .  S
C261        H262   1.082       .  S
C263        H273   1.083       .  S
N264        C265   1.363       .  A
N264        C314   1.433       .  S
C265        H271   1.079       .  S
C266        H268   1.082       .  S
N267        C269   1.354       .  A
N267        C340   1.425       .  S
C269        H270   1.082       .  S
C274        C276   1.531       .  S
C274        C278   1.538       .  S
C274        C277   1.537       .  S
C274        C397   1.595       .  S
C275        C279   1.564       .  S
C275        C281   1.557       .  S
C275        C280   1.554       .  S
C275        C394   1.600       .  S
C276        C284   1.364       .  A
C276        C279   1.422       .  A
C277        C288   1.368       .  A
C277        C280   1.416       .  A
C278        C292   1.372       .  A
C278        C281   1.410       .  A
C279        C282   1.389       .  A
C280        C286   1.385       .  A
C281        C289   1.390       .  A
C282        H295   1.078       .  S
C282        N283   1.357       .  A
N283        C284   1.349       .  A
N283        C386   1.422       .  S
C284        H285   1.083       .  S
C286        H296   1.082       .  S
C286        N287   1.359       .  A
N287        C288   1.356       .  A
N287        C350   1.428       .  S
C288        H294   1.083       .  S
C289        H291   1.082       .  S
C289        N290   1.364       .  A
N290        C292   1.351       .  A
N290        C361   1.434       .  S
C292        H293   1.082       .  S
O297       Mg299   2.143       .  S
O297       Mg509   2.128       .  S
O297        C740   1.230       .  S
C298        H337   1.076       .  S
C298        O311   1.223       .  S
C298        O335   1.267       .  A
Mg299       O940   2.139       .  S
Mg299      O1155   2.279       .  S
Mg299      O1126   2.247       .  S
O300       Mg954   2.120       .  S
O300       Mg325   2.147       .  S
O300       C1137   1.222       .  S
O301        C332   1.270       .  A
O301       Mg325   2.286       .  S
C302        O304   1.273       .  A
C302        O316   1.273       .  A
O303        C331   1.271       .  A
O303       Mg713   2.283       .  S
O304       Mg336   2.275       .  S
Mg305       O501   2.134   1_556  S
Mg305       O311   2.143       .  S
Mg305       O711   2.281       .  S
Mg305       O727   2.233       .  S
C306        O344   1.274       .  A
C306        O312   1.280       .  A
O307        C314   1.278       .  A
H308       C1137   1.077       .  S
C309        H742   1.062   1_545  S
C309        O731   1.227   1_545  S
C309        O324   1.268       .  A
O310        C333   1.264       .  A
O310      Mg1115   2.233   1_455  S
C313        O326   1.272       .  A
C313        O318   1.279   1_556  A
C314        O341   1.273       .  A
Mg315       O322   2.123       .  S
Mg315       O527   2.117   1_545  S
Mg315       O725   2.279   1_545  S
Mg315       O752   2.252   1_545  S
O317        C321   1.267   1_455  A
O317       Mg723   2.284       .  S
O319        C338   1.270       .  A
O319       Mg713   2.237       .  S
O320        C340   1.271       .  A
C321       H1124   1.078       .  S
C321       O1116   1.222       .  S
O322        C333   1.232       .  S
O323       Mg519   2.128   1_556  S
O323       Mg342   2.131       .  S
O323        C717   1.225       .  S
O324       Mg336   2.267       .  S
Mg325       O341   2.272       .  S
O326      Mg1158   2.268       .  S
H327        C740   1.081       .  S
O328       Mg911   2.120   1_456  S
O328       Mg336   2.126       .  S
O328       C1147   1.227       .  S
H329       C1147   1.080       .  S
H330        C333   1.069       .  S
C331       H1145   1.081       .  S
C331       O1144   1.229       .  S
C332        H735   1.081       .  S
C332        O705   1.231       .  S
H334        C717   1.061       .  S
O335      Mg1158   2.288       .  S
C338        O343   1.273       .  A
O339        C340   1.270       .  A
O339      Mg1115   2.260   1_455  S
Mg342       O912   2.141   1_456  S
Mg342      O1142   2.272   1_455  S
Mg342      O1151   2.291   1_455  S
O344       Mg723   2.261       .  S
O345       Mg347   2.166       .  S
O345      Mg1169   2.146       .  S
O345       C1196   1.223       .  S
C346        H385   1.077       .  S
C346        O359   1.223       .  S
C346        O383   1.267       .  A
Mg347       O784   2.127       .  S
Mg347       O391   2.286       .  S
Mg347       O795   2.247       .  S
Mg347       O766   2.282       .  S
O348       Mg798   2.162       .  S
O348       Mg373   2.134       .  S
O348        C777   1.234       .  S
O349        C380   1.269       .  A
O349       Mg373   2.293       .  S
C350        O352   1.276       .  A
C350        O364   1.274       .  A
O351        C379   1.269       .  A
O351      Mg1169   2.277       .  S
O352       Mg384   2.295       .  S
Mg353      O1161   2.137       .  S
Mg353       O359   2.148       .  S
Mg353      O1167   2.275       .  S
Mg353      O1183   2.223       .  S
Mg353       O355   2.277       .  S
C354        O392   1.272       .  A
C354        O360   1.273       .  A
O355        C362   1.271       .  A
H356        C777   1.069       .  S
C357       H1198   1.063   1_455  S
C357       O1187   1.228       .  S
C357        O372   1.269       .  A
O358        C381   1.268       .  A
O358       Mg755   2.281       .  S
O359       Mg373   2.145       .  S
O360       Mg390   2.307       .  S
C361        O374   1.272       .  A
C361        O366   1.278       .  A
C362        O389   1.269       .  A
Mg363       O370   2.132       .  S
Mg363      O1187   2.130       .  S
Mg363       O364   2.284       .  S
Mg363      O1181   2.257   1_455  S
Mg363      O1208   2.273   1_455  S
O365        C369   1.270       .  A
O365      Mg1179   2.273       .  S
O366       Mg373   2.335       .  S
O367        C386   1.271       .  A
O367      Mg1169   2.258       .  S
O368        C388   1.280       .  A
O368       Mg384   2.310       .  S
C369        H764   1.070   1_545  S
C369        O756   1.235   1_545  S
O370       Mg384   2.120       .  S
O370        C381   1.229       .  S
O371      Mg1179   2.128       .  S
O371       Mg390   2.125       .  S
O371       C1173   1.229       .  S
O372       Mg384   2.272       .  S
Mg373       O389   2.243       .  S
O374       Mg798   2.270       .  S
H375       C1196   1.079       .  S
O376       Mg755   2.121       .  S
O376       Mg384   2.128       .  S
O376        C787   1.226       .  S
H377        C787   1.079       .  S
H378        C381   1.081       .  S
C379        H785   1.079       .  S
C379        O784   1.225       .  S
C380       H1191   1.079       .  S
C380       O1161   1.223       .  S
H382       C1173   1.067       .  S
O383       Mg798   2.295       .  S
C386        O391   1.273       .  A
O387        C388   1.272       .  A
O387       Mg755   2.237       .  S
Mg390       O756   2.160   1_545  S
Mg390       O782   2.258   1_545  S
Mg390       O791   2.292   1_545  S
O392      Mg1179   2.291       .  S
C393        C394   1.384       .  D
C393        H395   1.072       .  S
C394        H396   1.085       .  S
C397        C398   1.380       .  D
C397        H399   1.075       .  S
C398        H400   1.086       .  S
C401        C402   1.382       .  D
C401        H403   1.084       .  S
C402        H404   1.062       .  S
C405        C406   1.383       .  D
C405        H407   1.077       .  S
C406        H408   1.088       .  S
C409        C411   1.530       .  S
C409        C413   1.545       .  S
C409        C412   1.529   1_554  S
C409        C610   1.589       .  S
C410        C414   1.544       .  S
C410        C416   1.558       .  S
C410        C415   1.559       .  S
C410        C605   1.599       .  S
C411        C419   1.365       .  A
C411        C618   1.422   1_554  A
C412        C423   1.365   1_556  A
C412        C619   1.413       .  A
C413        C427   1.376       .  A
C413        C620   1.410   1_554  A
C414        C615   1.418       .  A
C414        C417   1.378       .  A
C415        C616   1.419       .  A
C415        C421   1.386       .  A
C416        C617   1.414       .  A
C416        C424   1.393       .  A
C417        H430   1.082       .  S
C417        N622   1.353       .  A
N418        C621   1.356       .  A
N418        C419   1.349   1_556  A
N418        C746   1.419       .  S
C419        H420   1.083       .  S
C421        H431   1.078       .  S
C421        N422   1.358       .  A
N422        C627   1.351       .  A
N422        C506   1.426       .  S
C423        H429   1.083       .  S
C423        N626   1.354   1_554  A
C424        H426   1.081       .  S
C424        N629   1.363       .  A
N425        C628   1.363       .  A
N425        C427   1.354   1_556  A
N425        C721   1.435       .  S
C427        H428   1.082       .  S
C432        C434   1.552       .  S
C432        C436   1.557       .  S
C432        C435   1.561       .  S
C432        C609   1.599       .  S
C433        C437   1.535       .  S
C433        C439   1.546       .  S
C433        C438   1.521       .  S
C433        C606   1.593       .  S
C434        C442   1.380       .  A
C434        C437   1.416       .  A
C435        C446   1.386       .  A
C435        C438   1.418       .  A
C436        C450   1.391       .  A
C436        C439   1.413       .  A
C437        C440   1.368       .  A
C438        C444   1.360       .  A
C439        C447   1.375       .  A
C440        H453   1.083       .  S
C440        N441   1.356       .  A
N441        C442   1.359       .  A
N441        C558   1.425       .  S
C442        H443   1.083       .  S
C444        H454   1.081       .  S
C444        N445   1.344       .  A
N445        C446   1.354       .  A
N445        C566   1.413       .  S
C446        H452   1.074       .  S
C447        H449   1.082       .  S
C447        N448   1.356       .  A
N448        C450   1.363       .  A
N448        C592   1.437       .  S
C450        H451   1.082       .  S
C455        C457   1.550       .  S
C455        C459   1.558       .  S
C455        C458   1.553       .  S
C455        C602   1.597       .  S
C456        C460   1.527       .  S
C456        C462   1.546       .  S
C456        C461   1.542       .  S
C456        C597   1.593       .  S
C457        C465   1.388       .  A
C457        C664   1.411       .  A
C458        C469   1.382       .  A
C458        C665   1.417       .  A
C459        C473   1.382       .  A
C459        C666   1.421       .  A
C460        C661   1.408       .  A
C460        C463   1.364       .  A
C461        C662   1.420       .  A
C461        C467   1.372       .  A
C462        C663   1.418       .  A
C462        C470   1.374       .  A
C463        H476   1.083       .  S
C463        N668   1.351       .  A
N464        C667   1.353   1_554  A
N464        C465   1.361       .  A
N464        C510   1.431       .  S
C465        H466   1.082       .  S
C467        H477   1.082       .  S
C467        N672   1.352       .  A
N468        C671   1.356   1_554  A
N468        C469   1.359       .  A
N468        C518   1.426       .  S
C469        H475   1.082       .  S
C470        H472   1.079       .  S
C470        N675   1.356       .  A
N471        C674   1.350   1_554  A
N471        C473   1.355       .  A
N471        C544   1.418       .  S
C473        H474   1.077       .  S
C478        C480   1.539       .  S
C478        C482   1.532       .  S
C478        C481   1.545       .  S
C478        C601   1.590       .  S
C479        C483   1.554       .  S
C479        C485   1.540       .  S
C479        C484   1.553       .  S
C479        C598   1.586       .  S
C480        C488   1.367       .  A
C480        C483   1.418       .  A
C481        C492   1.379       .  A
C481        C484   1.408       .  A
C482        C496   1.363       .  A
C482        C485   1.415       .  A
C483        C486   1.386       .  A
C484        C490   1.387       .  A
C485        C493   1.374       .  A
C486        H499   1.082       .  S
C486        N487   1.362       .  A
N487        C488   1.356       .  A
N487        C590   1.430       .  S
C488        H489   1.083       .  S
C490        H500   1.082       .  S
C490        N491   1.360       .  A
N491        C492   1.355       .  A
N491        C554   1.434       .  S
C492        H498   1.082       .  S
C493        H495   1.082       .  S
C493        N494   1.354       .  A
N494        C496   1.353       .  A
N494        C565   1.414       .  S
C496        H497   1.083       .  S
O501       Mg503   2.141       .  S
C502        H541   1.073       .  S
C502        O515   1.234       .  S
C502        O539   1.267       .  A
Mg503      O1552   2.115   1_554  S
Mg503       O751   2.293       .  S
Mg503      O1359   2.248       .  S
Mg503      O1330   2.284       .  S
O504      Mg1566   2.158   1_554  S
O504       Mg529   2.130       .  S
O504       C1341   1.233       .  S
O505        C536   1.271   1_565  A
O505       Mg529   2.300       .  S
C506        O508   1.272       .  A
C506        O520   1.277       .  A
O507        C535   1.268       .  A
O508       Mg540   2.258       .  S
Mg509       O515   2.133   1_545  S
Mg509       O715   2.339   1_545  S
C510        O548   1.272       .  A
C510        O516   1.274       .  A
O511        C518   1.274       .  A
O511       Mg713   2.301   1_564  S
H512       C1341   1.068       .  S
C513        O528   1.270       .  A
O514        C537   1.267       .  A
O514      Mg1319   2.279   1_455  S
O515       Mg733   2.154       .  S
O516       Mg750   2.306   1_554  S
C517        N629   1.439       .  S
C517        O530   1.275       .  A
C517        O522   1.274       .  A
C518        O545   1.270       .  A
Mg519       O526   2.139       .  S
Mg519       O724   2.289   1_554  S
O520       Mg723   2.315       .  S
O521        C525   1.267   1_455  A
O522       Mg733   2.314       .  S
O523        C542   1.270       .  A
O524        C544   1.276   1_556  A
O524       Mg744   2.296       .  S
C525       H1328   1.069       .  S
C525       O1320   1.231       .  S
O526       Mg744   2.142   1_554  S
O526        C537   1.230       .  S
O527       Mg546   2.125       .  S
O528       Mg540   2.283       .  S
Mg529       O719   2.149   1_554  S
Mg529       O726   2.341       .  S
Mg529       O545   2.257       .  S
O530      Mg1362   2.313       .  S
O532      Mg1523   2.141   1_455  S
O532       Mg540   2.162       .  S
O532       C1351   1.225       .  S
H533       C1351   1.081       .  S
H534        C537   1.081       .  S
C535       H1349   1.080       .  S
C535       O1348   1.227       .  S
O539      Mg1362   2.250       .  S
Mg540       O730   2.150       .  S
Mg540       O728   2.281       .  S
C542        N622   1.419       .  S
C542        O547   1.276       .  A
O543        C544   1.272       .  A
O543      Mg1319   2.237   1_455  S
Mg546      O1524   2.118   1_455  S
Mg546       O720   2.313       .  S
Mg546      O1346   2.284   1_455  S
Mg546      O1355   2.251   1_455  S
O547       Mg707   2.298       .  S
O549       Mg551   2.132   1_655  S
O549      Mg1373   2.128       .  S
O549       C1400   1.230       .  S
C550        H589   1.081       .  S
C550        O563   1.230       .  S
C550        O587   1.269       .  A
Mg551       O595   2.307       .  S
O552       Mg577   2.118       .  S
O553        C584   1.267       .  A
O553       Mg577   2.278       .  S
C554        O556   1.272       .  A
C554        O568   1.278       .  A
O555        C583   1.266       .  A
O555      Mg1373   2.267   1_455  S
O556       Mg588   2.269       .  S
Mg557      O1365   2.121       .  S
Mg557       O563   2.136       .  S
Mg557      O1371   2.268       .  S
Mg557      O1387   2.271       .  S
Mg557       O559   2.284       .  S
C558        O596   1.269       .  A
C558        O564   1.274       .  A
O559        C566   1.275       .  A
C561       H1402   1.074       .  S
C561       O1391   1.220       .  S
C561        O576   1.269   1_655  A
O562        C585   1.268       .  A
O563       Mg577   2.141       .  S
O564       Mg594   2.301       .  S
C565        O578   1.271       .  A
C565        O570   1.272       .  A
C566        O593   1.269       .  A
Mg567       O574   2.136   1_655  S
Mg567      O1391   2.143       .  S
Mg567       O568   2.330   1_655  S
Mg567      O1385   2.274       .  S
Mg567      O1412   2.258       .  S
O569        C573   1.261       .  A
O569      Mg1383   2.272       .  S
O570       Mg577   2.269       .  S
O571        C590   1.275       .  A
O571      Mg1373   2.283   1_455  S
O572        C592   1.275       .  A
O572       Mg588   2.315       .  S
O574       Mg588   2.161       .  S
O574        C585   1.233       .  S
O575      Mg1383   2.156       .  S
O575       Mg594   2.167       .  S
O575       C1377   1.222       .  S
O576       Mg588   2.307       .  S
Mg577       O593   2.221       .  S
H579       C1400   1.081       .  S
O580       Mg588   2.137       .  S
H582        C585   1.070       .  S
C584       H1395   1.081       .  S
C584       O1365   1.228       .  S
H586       C1377   1.074       .  S
C590        O595   1.277       .  A
O591        C592   1.274       .  A
O596      Mg1383   2.245       .  S
C597        C598   1.379       .  D
C597        H599   1.086       .  S
C598        H600   1.077       .  S
C601        C602   1.382       .  D
C601        H603   1.072       .  S
C602        H604   1.085       .  S
C605        C606   1.386       .  D
C605        H607   1.086       .  S
C606        H608   1.073       .  S
C609        C610   1.384       .  D
C609        H611   1.085       .  S
C610        H612   1.064       .  S
C613        C615   1.546       .  S
C613        C617   1.545       .  S
C613        C616   1.541       .  S
C613        C814   1.604       .  S
C614        C618   1.564       .  S
C614        C620   1.553       .  S
C614        C619   1.554       .  S
C614        C809   1.599       .  S
C615        C623   1.374       .  A
C616        C627   1.372       .  A
C617        C631   1.374       .  A
C618        C621   1.386       .  A
C619        C625   1.385       .  A
C620        C628   1.388       .  A
C621        H634   1.076       .  S
N622        C623   1.350       .  A
C623        H624   1.074       .  S
C625        H635   1.082       .  S
C625        N626   1.360       .  A
N626        C710   1.426       .  S
C627        H633   1.082       .  S
C628        H630   1.082       .  S
N629        C631   1.358       .  A
C631        H632   1.083       .  S
C636        C638   1.561       .  S
C636        C640   1.546       .  S
C636        C639   1.548       .  S
C636        C813   1.590       .  S
C637        C641   1.544       .  S
C637        C643   1.535       .  S
C637        C642   1.539       .  S
C637        C810   1.592       .  S
C638        C646   1.395       .  A
C638        C641   1.407       .  A
C639        C650   1.380       .  A
C639        C642   1.418       .  A
C640        C654   1.377       .  A
C640        C643   1.417       .  A
C641        C644   1.378       .  A
C642        C648   1.367       .  A
C643        C651   1.367       .  A
C644        H657   1.082       .  S
C644        N645   1.354       .  A
N645        C646   1.363       .  A
N645        C762   1.439       .  S
C646        H647   1.082       .  S
C648        H658   1.083       .  S
C648        N649   1.356       .  A
N649        C650   1.359       .  A
N649        C770   1.424       .  S
C650        H656   1.082       .  S
C651        H653   1.082       .  S
C651        N652   1.354       .  A
N652        C654   1.358       .  A
N652        C796   1.421       .  S
C654        H655   1.082       .  S
C659        C661   1.550       .  S
C659        C663   1.545       .  S
C659        C662   1.567       .  S
C659        C806   1.595       .  S
C660        C664   1.543   1_556  S
C660        C666   1.531   1_556  S
C660        C665   1.537   1_556  S
C660        C801   1.597       .  S
C661        C669   1.384       .  A
C662        C673   1.392       .  A
C663        C677   1.380       .  A
C664        C667   1.372   1_554  A
C665        C671   1.368   1_554  A
C666        C674   1.365   1_554  A
C667        H680   1.082       .  S
N668        C669   1.361       .  A
N668        C714   1.424       .  S
C669        H670   1.082       .  S
C671        H681   1.083       .  S
N672        C673   1.363       .  A
N672        C722   1.433       .  S
C673        H679   1.079       .  S
C674        H676   1.082       .  S
N675        C677   1.354       .  A
N675        C748   1.424       .  S
C677        H678   1.082       .  S
C682        C684   1.530       .  S
C682        C686   1.536       .  S
C682        C685   1.538       .  S
C682        C805   1.594       .  S
C683        C687   1.565       .  S
C683        C689   1.555       .  S
C683        C688   1.557       .  S
C683        C802   1.602       .  S
C684        C692   1.362       .  A
C684        C687   1.422       .  A
C685        C696   1.370       .  A
C685        C688   1.416       .  A
C686        C700   1.370       .  A
C686        C689   1.410       .  A
C687        C690   1.388       .  A
C688        C694   1.386       .  A
C689        C697   1.389       .  A
C690        H703   1.077       .  S
C690        N691   1.358       .  A
N691        C692   1.349       .  A
N691        C794   1.421       .  S
C692        H693   1.083       .  S
C694        H704   1.082       .  S
C694        N695   1.361       .  A
N695        C696   1.357       .  A
N695        C758   1.431       .  S
C696        H702   1.083       .  S
C697        H699   1.082       .  S
C697        N698   1.363       .  A
N698        C700   1.350       .  A
N698        C769   1.430       .  S
C700        H701   1.082       .  S
O705       Mg707   2.139       .  S
C706        H745   1.077       .  S
C706        O719   1.222       .  S
C706        O743   1.266       .  A
Mg707      O1348   2.132       .  S
Mg707      O1563   2.280       .  S
Mg707      O1534   2.250       .  S
O708      Mg1362   2.114       .  S
O708       Mg733   2.155       .  S
O708       C1545   1.222       .  S
O709        C740   1.270   1_565  A
O709       Mg733   2.289       .  S
C710        O712   1.274       .  A
C710        O724   1.275       .  A
O711        C739   1.270       .  A
O712       Mg744   2.278       .  S
Mg713       O719   2.151   1_545  S
C714        O752   1.273       .  A
C714        O720   1.279       .  A
O715        C722   1.280       .  A
H716       C1545   1.077       .  S
C717        O732   1.268       .  A
O718        C741   1.264       .  A
O718      Mg1523   2.229   1_455  S
C721        O734   1.272       .  A
C721        O726   1.279   1_556  A
C722        O749   1.273       .  A
Mg723       O730   2.121       .  S
O725        C729   1.265   1_455  A
O727        C746   1.269       .  A
O728        C748   1.270       .  A
C729       H1532   1.079       .  S
C729       O1524   1.221       .  S
O730        C741   1.231       .  S
O731       Mg750   2.127       .  S
O732       Mg744   2.270       .  S
Mg733       O749   2.265       .  S
O734      Mg1566   2.269       .  S
O736      Mg1319   2.119   1_456  S
O736       Mg744   2.134       .  S
O736       C1555   1.227       .  S
H737       C1555   1.079       .  S
H738        C741   1.068       .  S
C739       H1553   1.081       .  S
C739       O1552   1.229       .  S
O743      Mg1566   2.290       .  S
C746        O751   1.274   1_556  A
O747        C748   1.270       .  A
O747      Mg1523   2.267   1_455  S
Mg750      O1320   2.147   1_456  S
Mg750      O1550   2.272   1_455  S
Mg750      O1559   2.295   1_455  S
O753       Mg755   2.158   1_565  S
O753      Mg1577   2.144       .  S
O753       C1604   1.221       .  S
C754        H793   1.077       .  S
C754        O767   1.223       .  S
C754        O791   1.267       .  A
Mg755       O799   2.282   1_545  S
O756       Mg781   2.138       .  S
O757        C788   1.269       .  A
O757       Mg781   2.294       .  S
C758        O760   1.277       .  A
C758        O772   1.277       .  A
O759        C787   1.270   1_565  A
O759      Mg1577   2.274       .  S
O760       Mg792   2.294       .  S
Mg761      O1569   2.133       .  S
Mg761       O767   2.148       .  S
Mg761      O1575   2.276       .  S
Mg761      O1591   2.236       .  S
Mg761       O763   2.293       .  S
C762        O800   1.273       .  A
C762        O768   1.276       .  A
O763        C770   1.272       .  A
C765       H1606   1.066   1_455  S
C765       O1595   1.224       .  S
C765        O780   1.268       .  A
O766        C789   1.269       .  A
O767       Mg781   2.135       .  S
O768       Mg798   2.322       .  S
C769        O782   1.271       .  A
C769        O774   1.277       .  A
C770        O797   1.271       .  A
Mg771       O778   2.138       .  S
Mg771      O1595   2.126       .  S
Mg771       O772   2.302       .  S
Mg771      O1589   2.259   1_455  S
Mg771      O1616   2.290   1_455  S
O773        C777   1.269       .  A
O773      Mg1587   2.271       .  S
O774       Mg781   2.329       .  S
O775        C794   1.271       .  A
O775      Mg1577   2.253       .  S
O776        C796   1.279       .  A
O776       Mg792   2.309       .  S
O778       Mg792   2.123       .  S
O778        C789   1.229       .  S
O779      Mg1587   2.140       .  S
O779       Mg798   2.133       .  S
O779       C1581   1.231       .  S
O780       Mg792   2.279       .  S
Mg781       O797   2.259       .  S
H783       C1604   1.078       .  S
O784       Mg792   2.137       .  S
H786        C789   1.081       .  S
C788       H1599   1.077       .  S
C788       O1569   1.222       .  S
H790       C1581   1.067       .  S
C794        O799   1.273       .  A
O795        C796   1.273       .  A
O800      Mg1587   2.299       .  S
C801        C802   1.385       .  D
C801        H803   1.071       .  S
C802        H804   1.085       .  S
C805        C806   1.378       .  D
C805        H807   1.074       .  S
C806        H808   1.085       .  S
C809        C810   1.381       .  D
C809        H811   1.085       .  S
C810        H812   1.067       .  S
C813        C814   1.386       .  D
C813        H815   1.066       .  S
C814        H816   1.085       .  S
C817        C819   1.531   1_554  S
C817        C821   1.546   1_554  S
C817        C820   1.530   1_554  S
C817       C1018   1.595       .  S
C818        C822   1.547       .  S
C818        C824   1.556       .  S
C818        C823   1.567       .  S
C818       C1013   1.598       .  S
C819        C827   1.365   1_556  A
C819       C1026   1.421       .  A
C820        C831   1.364   1_556  A
C820       C1027   1.415       .  A
C821        C835   1.376   1_556  A
C821       C1028   1.412       .  A
C822       C1023   1.412       .  A
C822        C825   1.380       .  A
C823       C1024   1.424       .  A
C823        C829   1.388       .  A
C824       C1025   1.410       .  A
C824        C832   1.394       .  A
C825        H838   1.083       .  S
C825       N1030   1.357       .  A
N826       C1029   1.354       .  A
N826        C827   1.350   1_556  A
N826       C1154   1.418       .  S
C827        H828   1.083       .  S
C829        H839   1.080       .  S
C829        N830   1.362       .  A
N830       C1035   1.356       .  A
N830        C914   1.435       .  S
C831        H837   1.083       .  S
C831       N1034   1.353   1_554  A
C832        H834   1.080       .  S
C832       N1037   1.362       .  A
N833       C1036   1.363       .  A
N833        C835   1.354   1_556  A
N833       C1129   1.435       .  S
C835        H836   1.082       .  S
C840        C842   1.558       .  S
C840        C844   1.561       .  S
C840        C843   1.560       .  S
C840       C1017   1.605       .  S
C841        C845   1.537       .  S
C841        C847   1.541       .  S
C841        C846   1.522       .  S
C841       C1014   1.598       .  S
C842        C850   1.385       .  A
C842        C845   1.417       .  A
C843        C854   1.386       .  A
C843        C846   1.419       .  A
C844        C858   1.392       .  A
C844        C847   1.414       .  A
C845        C848   1.370       .  A
C846        C852   1.359       .  A
C847        C855   1.371       .  A
C848        H861   1.083       .  S
C848        N849   1.357       .  A
N849        C850   1.361       .  A
N849        C966   1.431       .  S
C850        H851   1.082       .  S
C852        H862   1.079       .  S
C852        N853   1.343       .  A
N853        C854   1.354       .  A
N853        C974   1.412       .  S
C854        H860   1.076       .  S
C855        H857   1.082       .  S
C855        N856   1.353       .  A
N856        C858   1.365       .  A
N856       C1000   1.435       .  S
C858        H859   1.082       .  S
C863        C865   1.549       .  S
C863        C867   1.550       .  S
C863        C866   1.558       .  S
C863       C1010   1.598       .  S
C864        C868   1.531       .  S
C864        C870   1.552       .  S
C864        C869   1.536       .  S
C864       C1005   1.601       .  S
C865        C873   1.386       .  A
C865       C1072   1.414       .  A
C866        C877   1.383       .  A
C866       C1073   1.418       .  A
C867        C881   1.379       .  A
C867       C1074   1.418       .  A
C868       C1069   1.411       .  A
C868        C871   1.364       .  A
C869       C1070   1.409       .  A
C869        C875   1.372       .  A
C870       C1071   1.429       .  A
C870        C878   1.371       .  A
C871        H884   1.083       .  S
C871       N1076   1.352       .  A
N872       C1075   1.353   1_554  A
N872        C873   1.361       .  A
N872        C918   1.429       .  S
C873        H874   1.082       .  S
C875        H885   1.082       .  S
C875       N1080   1.353       .  A
N876       C1079   1.353   1_554  A
N876        C877   1.360       .  A
N876        C926   1.423       .  S
C877        H883   1.082       .  S
C878        H880   1.079       .  S
C878       N1083   1.354       .  A
N879       C1082   1.349   1_554  A
N879        C881   1.353       .  A
N879        C952   1.413       .  S
C881        H882   1.079       .  S
C886        C888   1.539       .  S
C886        C890   1.531       .  S
C886        C889   1.545       .  S
C886       C1009   1.594       .  S
C887        C891   1.555       .  S
C887        C893   1.544       .  S
C887        C892   1.554       .  S
C887       C1006   1.594       .  S
C888        C896   1.366       .  A
C888        C891   1.419       .  A
C889        C900   1.378       .  A
C889        C892   1.411       .  A
C890        C904   1.363       .  A
C890        C893   1.416       .  A
C891        C894   1.386       .  A
C892        C898   1.386       .  A
C893        C901   1.377       .  A
C894        H907   1.082       .  S
C894        N895   1.362       .  A
N895        C896   1.355       .  A
N895        C998   1.429       .  S
C896        H897   1.083       .  S
C898        H908   1.082       .  S
C898        N899   1.359       .  A
N899        C900   1.356       .  A
N899        C962   1.433       .  S
C900        H906   1.082       .  S
C901        H903   1.081       .  S
C901        N902   1.356       .  A
N902        C904   1.351       .  A
N902        C973   1.416       .  S
C904        H905   1.082       .  S
O909       Mg911   2.139       .  S
O909      Mg1529   2.133   1_554  S
O909       C1352   1.220       .  S
C910        H949   1.074       .  S
C910        O923   1.235       .  S
C910        O947   1.268       .  A
Mg911      O1159   2.288   1_554  S
O912       Mg937   2.115       .  S
O913        C944   1.270       .  A
O913       Mg937   2.301       .  S
C914        O916   1.273       .  A
C914        O928   1.280       .  A
O915        C943   1.265   1_655  A
O915      Mg1325   2.290       .  S
O916       Mg948   2.269       .  S
Mg917      O1521   2.118       .  S
Mg917       O923   2.131       .  S
Mg917      O1323   2.288       .  S
Mg917      O1339   2.236       .  S
Mg917      O1123   2.313       .  S
C918        O956   1.271       .  A
C918        O924   1.274       .  A
O919        C926   1.274       .  A
O919      Mg1121   2.303   1_554  S
C921       H1354   1.080   1_545  S
C921       O1343   1.229   1_545  S
C921        O936   1.270       .  A
O922        C945   1.267       .  A
O923      Mg1141   2.148       .  S
O924      Mg1158   2.302   1_554  S
C925       N1037   1.432       .  S
C925        O938   1.271       .  A
C925        O930   1.273       .  A
C926        O953   1.268       .  A
Mg927       O934   2.140       .  S
Mg927      O1547   2.147   1_544  S
Mg927      O1132   2.295   1_554  S
Mg927      O1337   2.264   1_545  S
Mg927      O1364   2.294   1_545  S
O928      Mg1131   2.347       .  S
O929        C933   1.267       .  A
O929      Mg1335   2.257       .  S
O930      Mg1141   2.309       .  S
O931        C950   1.275       .  A
O931      Mg1325   2.268       .  S
O932        C952   1.274       .  A
O932      Mg1152   2.273   1_554  S
O934      Mg1152   2.133   1_554  S
O934        C945   1.231       .  S
O935      Mg1539   2.123       .  S
O935       Mg954   2.131       .  S
O935       C1329   1.229       .  S
O936       Mg948   2.293       .  S
Mg937      O1127   2.147   1_554  S
Mg937      O1134   2.336   1_554  S
Mg937       O953   2.242       .  S
H939       C1352   1.076       .  S
O940       Mg948   2.149       .  S
H942        C945   1.081       .  S
C944       H1347   1.077       .  S
C944       O1317   1.220       .  S
H946       C1329   1.080       .  S
Mg948      O1138   2.157       .  S
Mg948      O1136   2.294       .  S
C950       N1030   1.427       .  S
C950        O955   1.276       .  A
O951        C952   1.273       .  A
Mg954      O1128   2.307       .  S
O955      Mg1115   2.302       .  S
O956      Mg1335   2.275       .  S
O957       Mg959   2.141       .  S
C958        H997   1.081       .  S
C958        O971   1.230       .  S
C958        O995   1.269       .  A
Mg959      O1396   2.138       .  S
Mg959      O1003   2.296       .  S
Mg959      O1407   2.310       .  S
Mg959      O1378   2.255       .  S
O960      Mg1410   2.133       .  S
O960       Mg985   2.119       .  S
O960       C1389   1.222       .  S
O961        C992   1.269       .  A
O961       Mg985   2.286       .  S
C962        O964   1.272       .  A
C962        O976   1.275       .  A
O963        C991   1.269       .  A
O964       Mg996   2.272       .  S
Mg965       O971   2.136       .  S
Mg965       O967   2.283       .  S
C966       O1004   1.271       .  A
C966        O972   1.277       .  A
O967        C974   1.274       .  A
H968       C1389   1.080       .  S
C969        O984   1.270       .  A
O970        C993   1.269       .  A
O970      Mg1367   2.268   1_545  S
O971       Mg985   2.141       .  S
O972      Mg1002   2.326   1_545  S
C973        O986   1.272       .  A
C973        O978   1.272       .  A
C974       O1001   1.268       .  A
Mg975       O982   2.139       .  S
Mg975       O976   2.319       .  S
O977        C981   1.266   1_545  A
O978       Mg985   2.280       .  S
O979        C998   1.275       .  A
O980       C1000   1.275       .  A
O980       Mg996   2.319       .  S
C981       H1376   1.080       .  S
C981       O1368   1.222       .  S
O982       Mg996   2.164       .  S
O982        C993   1.235       .  S
O983      Mg1002   2.146   1_545  S
O984       Mg996   2.309       .  S
Mg985      O1001   2.216       .  S
O986      Mg1410   2.247       .  S
O988      Mg1367   2.139   1_545  S
O988       Mg996   2.138       .  S
O988       C1399   1.228   1_545  S
H989       C1399   1.069   1_545  S
H990        C993   1.071       .  S
C991       H1397   1.070       .  S
C991       O1396   1.229       .  S
O995      Mg1410   2.288       .  S
C998       O1003   1.276       .  A
O999       C1000   1.272       .  A
O999      Mg1367   2.284   1_545  S
Mg1002     O1368   2.125       .  S
Mg1002     O1394   2.225       .  S
Mg1002     O1403   2.298       .  S
C1005      C1006   1.381       .  D
C1005      H1007   1.086       .  S
C1006      H1008   1.077       .  S
C1009      C1010   1.387       .  D
C1009      H1011   1.078       .  S
C1010      H1012   1.085       .  S
C1013      C1014   1.384       .  D
C1013      H1015   1.086       .  S
C1014      H1016   1.077       .  S
C1017      C1018   1.389       .  D
C1017      H1019   1.085       .  S
C1018      H1020   1.066       .  S
C1021      C1023   1.536       .  S
C1021      C1025   1.540       .  S
C1021      C1024   1.546       .  S
C1021      C1222   1.596       .  S
C1022      C1026   1.559       .  S
C1022      C1028   1.555       .  S
C1022      C1027   1.557       .  S
C1022      C1217   1.599       .  S
C1023      C1031   1.371       .  A
C1024      C1035   1.376       .  A
C1025      C1039   1.370       .  A
C1026      C1029   1.385       .  A
C1027      C1033   1.387       .  A
C1028      C1036   1.389       .  A
C1029      H1042   1.072       .  S
N1030      C1031   1.357       .  A
C1031      H1032   1.082       .  S
C1033      H1043   1.082       .  S
C1033      N1034   1.361       .  A
N1034      C1118   1.427       .  S
C1035      H1041   1.082       .  S
C1036      H1038   1.082       .  S
N1037      C1039   1.351       .  A
C1039      H1040   1.082       .  S
C1044      C1046   1.550       .  S
C1044      C1048   1.540       .  S
C1044      C1047   1.568       .  S
C1044      C1221   1.595       .  S
C1045      C1049   1.545       .  S
C1045      C1051   1.521       .  S
C1045      C1050   1.530       .  S
C1045      C1218   1.590       .  S
C1046      C1054   1.386       .  A
C1046      C1049   1.412       .  A
C1047      C1058   1.388       .  A
C1047      C1050   1.425       .  A
C1048      C1062   1.373       .  A
C1048      C1051   1.410       .  A
C1049      C1052   1.373       .  A
C1050      C1056   1.362       .  A
C1051      C1059   1.361       .  A
C1052      H1065   1.082       .  S
C1052      N1053   1.355       .  A
N1053      C1054   1.359       .  A
N1053      C1170   1.430       .  S
C1054      H1055   1.082       .  S
C1056      H1066   1.083       .  S
C1056      N1057   1.350       .  A
N1057      C1058   1.362       .  A
N1057      C1178   1.424       .  S
C1058      H1064   1.080       .  S
C1059      H1061   1.082       .  S
C1059      N1060   1.350       .  A
N1060      C1062   1.355       .  A
N1060      C1204   1.411       .  S
C1062      H1063   1.082       .  S
C1067      C1069   1.554       .  S
C1067      C1071   1.563       .  S
C1067      C1070   1.544       .  S
C1067      C1214   1.597       .  S
C1068      C1072   1.544   1_556  S
C1068      C1074   1.527   1_556  S
C1068      C1073   1.530   1_556  S
C1068      C1209   1.593       .  S
C1069      C1077   1.388       .  A
C1070      C1081   1.380       .  A
C1071      C1085   1.390       .  A
C1072      C1075   1.371   1_554  A
C1073      C1079   1.364   1_554  A
C1074      C1082   1.361   1_554  A
C1075      H1088   1.082       .  S
N1076      C1077   1.362       .  A
N1076      C1122   1.427       .  S
C1077      H1078   1.082       .  S
C1079      H1089   1.083       .  S
N1080      C1081   1.359       .  A
N1080      C1130   1.426       .  S
C1081      H1087   1.083       .  S
C1082      H1084   1.082       .  S
N1083      C1085   1.357       .  A
N1083      C1156   1.429       .  S
C1085      H1086   1.079       .  S
C1090      C1092   1.529       .  S
C1090      C1094   1.542       .  S
C1090      C1093   1.536       .  S
C1090      C1213   1.596       .  S
C1091      C1095   1.556       .  S
C1091      C1097   1.562       .  S
C1091      C1096   1.550       .  S
C1091      C1210   1.602       .  S
C1092      C1100   1.364       .  A
C1092      C1095   1.421       .  A
C1093      C1104   1.366       .  A
C1093      C1096   1.410       .  A
C1094      C1108   1.374       .  A
C1094      C1097   1.420       .  A
C1095      C1098   1.382       .  A
C1096      C1102   1.389       .  A
C1097      C1105   1.386       .  A
C1098      H1111   1.077       .  S
C1098      N1099   1.352       .  A
N1099      C1100   1.347       .  A
N1099      C1202   1.414       .  S
C1100      H1101   1.082       .  S
C1102      H1112   1.082       .  S
C1102      N1103   1.360       .  A
N1103      C1104   1.351       .  A
N1103      C1166   1.425       .  S
C1104      H1110   1.082       .  S
C1105      H1107   1.082       .  S
C1105      N1106   1.363       .  A
N1106      C1108   1.358       .  A
N1106      C1177   1.436       .  S
C1108      H1109   1.083       .  S
O1113     Mg1115   2.135       .  S
O1113     Mg1325   2.117       .  S
O1113      C1556   1.230   1_545  S
C1114      H1153   1.076       .  S
C1114      O1127   1.226       .  S
C1114      O1151   1.268       .  A
O1116     Mg1141   2.150       .  S
O1117      C1148   1.271       .  A
O1117     Mg1141   2.298       .  S
C1118      O1120   1.273       .  A
C1118      O1132   1.275       .  A
O1119      C1147   1.269   1_655  A
O1119     Mg1529   2.273       .  S
O1120     Mg1152   2.275       .  S
Mg1121     O1317   2.131   1_556  S
Mg1121     O1127   2.146       .  S
Mg1121     O1527   2.288       .  S
Mg1121     O1543   2.235       .  S
C1122      O1160   1.276       .  A
C1122      O1128   1.279       .  A
O1123      C1130   1.275       .  A
C1125      H1558   1.066   1_545  S
C1125      O1547   1.229   1_545  S
C1125      O1140   1.264       .  A
O1126      C1149   1.267       .  A
C1129      O1142   1.272       .  A
C1129      O1134   1.278       .  A
C1130      O1157   1.270       .  A
Mg1131     O1138   2.135       .  S
Mg1131     O1343   2.124   1_545  S
Mg1131     O1541   2.293   1_545  S
Mg1131     O1568   2.268   1_545  S
O1133      C1137   1.268       .  A
O1133     Mg1539   2.287       .  S
O1135      C1154   1.270       .  A
O1135     Mg1529   2.240       .  S
O1136      C1156   1.272       .  A
O1138      C1149   1.234       .  S
O1139     Mg1335   2.146   1_556  S
O1139     Mg1158   2.130       .  S
O1139      C1533   1.229       .  S
O1140     Mg1152   2.240       .  S
Mg1141     O1157   2.253       .  S
H1143      C1556   1.081   1_545  S
O1144     Mg1152   2.125       .  S
H1146      C1149   1.064       .  S
C1148      H1551   1.081       .  S
C1148      O1521   1.231       .  S
H1150      C1533   1.066       .  S
C1154      O1159   1.274       .  A
O1155      C1156   1.272       .  A
O1160     Mg1539   2.273       .  S
O1161     Mg1163   2.140       .  S
C1162      H1201   1.075       .  S
C1162      O1175   1.224       .  S
C1162      O1199   1.267       .  A
Mg1163     O1600   2.127       .  S
Mg1163     O1207   2.290       .  S
Mg1163     O1611   2.239       .  S
Mg1163     O1582   2.279       .  S
O1164     Mg1614   2.160       .  S
O1164     Mg1189   2.125       .  S
O1164      C1593   1.232       .  S
O1165      C1196   1.270   1_655  A
O1165     Mg1189   2.302       .  S
C1166      O1168   1.273       .  A
C1166      O1180   1.275       .  A
O1167      C1195   1.268       .  A
O1168     Mg1200   2.275       .  S
Mg1169     O1175   2.146   1_455  S
Mg1169     O1171   2.318   1_455  S
C1170      O1208   1.270       .  A
C1170      O1176   1.273       .  A
O1171      C1178   1.277       .  A
H1172      C1593   1.071       .  S
C1173      O1188   1.266       .  A
O1174      C1197   1.267       .  A
O1174     Mg1571   2.276   1_545  S
O1175     Mg1189   2.148       .  S
O1176     Mg1206   2.305       .  S
C1177      O1190   1.273       .  A
C1177      O1182   1.277       .  A
C1178      O1205   1.268       .  A
Mg1179     O1186   2.130       .  S
Mg1179     O1180   2.294       .  S
O1181      C1185   1.268       .  A
O1182     Mg1189   2.327       .  S
O1183      C1202   1.268       .  A
O1184      C1204   1.275       .  A
O1184     Mg1200   2.277       .  S
C1185      H1580   1.070   1_545  S
C1185      O1572   1.232   1_545  S
O1186     Mg1200   2.114       .  S
O1186      C1197   1.227       .  S
O1187     Mg1206   2.148   1_455  S
O1188     Mg1200   2.253       .  S
Mg1189     O1205   2.234       .  S
O1190     Mg1614   2.282       .  S
O1192     Mg1571   2.133   1_545  S
O1192     Mg1200   2.126       .  S
O1192      C1603   1.229       .  S
H1193      C1603   1.081       .  S
H1194      C1197   1.081       .  S
C1195      H1601   1.081       .  S
C1195      O1600   1.227       .  S
O1199     Mg1614   2.285       .  S
C1202      O1207   1.274       .  A
O1203      C1204   1.271       .  A
O1203     Mg1571   2.229   1_545  S
Mg1206     O1572   2.160   1_545  S
Mg1206     O1598   2.286   1_545  S
Mg1206     O1607   2.283   1_545  S
C1209      C1210   1.388       .  D
C1209      H1211   1.071       .  S
C1210      H1212   1.085       .  S
C1213      C1214   1.383       .  D
C1213      H1215   1.076       .  S
C1214      H1216   1.085       .  S
C1217      C1218   1.387       .  D
C1217      H1219   1.084       .  S
C1218      H1220   1.063       .  S
C1221      C1222   1.378       .  D
C1221      H1223   1.086       .  S
C1222      H1224   1.078       .  S
C1225      C1227   1.531   1_554  S
C1225      C1229   1.545   1_554  S
C1225      C1228   1.527   1_554  S
C1225      C1426   1.596       .  S
C1226      C1230   1.546       .  S
C1226      C1232   1.556       .  S
C1226      C1231   1.566       .  S
C1226      C1421   1.597       .  S
C1227      C1235   1.363   1_556  A
C1227      C1434   1.423       .  A
C1228      C1239   1.362   1_556  A
C1228      C1435   1.415       .  A
C1229      C1243   1.374   1_556  A
C1229      C1436   1.413       .  A
C1230      C1431   1.412       .  A
C1230      C1233   1.377       .  A
C1231      C1432   1.424       .  A
C1231      C1237   1.387       .  A
C1232      C1433   1.410       .  A
C1232      C1240   1.393       .  A
C1233      H1246   1.082       .  S
C1233      N1438   1.357       .  A
N1234      C1437   1.354       .  A
N1234      C1235   1.350   1_556  A
N1234      C1562   1.416       .  S
C1235      H1236   1.083       .  S
C1237      H1247   1.078       .  S
C1237      N1238   1.361       .  A
N1238      C1443   1.356       .  A
N1238      C1322   1.435       .  S
C1239      H1245   1.083       .  S
C1239      N1442   1.352   1_554  A
C1240      H1242   1.080       .  S
C1240      N1445   1.361       .  A
N1241      C1444   1.362       .  A
N1241      C1243   1.354   1_556  A
N1241      C1537   1.432       .  S
C1243      H1244   1.082       .  S
C1248      C1250   1.555       .  S
C1248      C1252   1.564       .  S
C1248      C1251   1.561       .  S
C1248      C1425   1.605       .  S
C1249      C1253   1.539       .  S
C1249      C1255   1.545       .  S
C1249      C1254   1.523       .  S
C1249      C1422   1.595       .  S
C1250      C1258   1.382       .  A
C1250      C1253   1.417       .  A
C1251      C1262   1.386       .  A
C1251      C1254   1.417       .  A
C1252      C1266   1.396       .  A
C1252      C1255   1.414       .  A
C1253      C1256   1.371       .  A
C1254      C1260   1.361       .  A
C1255      C1263   1.374       .  A
C1256      H1269   1.083       .  S
C1256      N1257   1.357       .  A
N1257      C1258   1.360       .  A
N1257      C1374   1.429       .  S
C1258      H1259   1.082       .  S
C1260      H1270   1.080       .  S
C1260      N1261   1.344       .  A
N1261      C1262   1.355       .  A
N1261      C1382   1.415       .  S
C1262      H1268   1.076       .  S
C1263      H1265   1.082       .  S
C1263      N1264   1.355       .  A
N1264      C1266   1.366       .  A
N1264      C1408   1.441       .  S
C1266      H1267   1.082       .  S
C1271      C1273   1.553       .  S
C1271      C1275   1.540       .  S
C1271      C1274   1.556       .  S
C1271      C1418   1.591       .  S
C1272      C1276   1.531       .  S
C1272      C1278   1.552       .  S
C1272      C1277   1.537       .  S
C1272      C1413   1.597       .  S
C1273      C1281   1.389       .  A
C1273      C1480   1.416       .  A
C1274      C1285   1.383       .  A
C1274      C1481   1.415       .  A
C1275      C1289   1.376       .  A
C1275      C1482   1.415       .  A
C1276      C1477   1.410       .  A
C1276      C1279   1.365       .  A
C1277      C1478   1.408       .  A
C1277      C1283   1.375       .  A
C1278      C1479   1.430       .  A
C1278      C1286   1.373       .  A
C1279      H1292   1.083       .  S
C1279      N1484   1.352       .  A
N1280      C1483   1.355   1_554  A
N1280      C1281   1.363       .  A
N1280      C1326   1.434       .  S
C1281      H1282   1.082       .  S
C1283      H1293   1.082       .  S
C1283      N1488   1.354       .  A
N1284      C1487   1.354   1_554  A
N1284      C1285   1.358       .  A
N1284      C1334   1.424       .  S
C1285      H1291   1.082       .  S
C1286      H1288   1.077       .  S
C1286      N1491   1.352       .  A
N1287      C1490   1.353   1_554  A
N1287      C1289   1.355       .  A
N1287      C1360   1.416       .  S
C1289      H1290   1.082       .  S
C1294      C1296   1.539       .  S
C1294      C1298   1.543       .  S
C1294      C1297   1.546       .  S
C1294      C1417   1.598       .  S
C1295      C1299   1.547       .  S
C1295      C1301   1.540       .  S
C1295      C1300   1.553       .  S
C1295      C1414   1.588       .  S
C1296      C1304   1.365       .  A
C1296      C1299   1.415       .  A
C1297      C1308   1.380       .  A
C1297      C1300   1.412       .  A
C1298      C1312   1.370       .  A
C1298      C1301   1.418       .  A
C1299      C1302   1.385       .  A
C1300      C1306   1.383       .  A
C1301      C1309   1.375       .  A
C1302      H1315   1.082       .  S
C1302      N1303   1.361       .  A
N1303      C1304   1.354       .  A
N1303      C1406   1.427       .  S
C1304      H1305   1.083       .  S
C1306      H1316   1.082       .  S
C1306      N1307   1.359       .  A
N1307      C1308   1.358       .  A
N1307      C1370   1.433       .  S
C1308      H1314   1.082       .  S
C1309      H1311   1.081       .  S
C1309      N1310   1.353       .  A
N1310      C1312   1.351       .  A
N1310      C1381   1.416       .  S
C1312      H1313   1.079       .  S
O1317     Mg1319   2.138       .  S
C1318      H1357   1.074       .  S
C1318      O1331   1.235       .  S
C1318      O1355   1.267       .  A
Mg1319     O1567   2.281   1_554  S
O1320     Mg1345   2.119       .  S
O1321      C1352   1.270   1_565  A
O1321     Mg1345   2.294       .  S
C1322      O1324   1.274       .  A
C1322      O1336   1.280       .  A
O1323      C1351   1.264   1_655  A
O1324     Mg1356   2.277       .  S
Mg1325     O1331   2.138   1_545  S
Mg1325     O1531   2.329   1_545  S
C1326      O1364   1.273       .  A
C1326      O1332   1.273       .  A
O1327      C1334   1.272       .  A
O1327     Mg1529   2.291   1_564  S
C1329      O1344   1.269       .  A
O1330      C1353   1.267       .  A
O1331     Mg1549   2.153       .  S
O1332     Mg1566   2.300   1_554  S
C1333      N1445   1.432       .  S
C1333      O1346   1.272       .  A
C1333      O1338   1.274       .  A
C1334      O1361   1.270       .  A
Mg1335     O1342   2.136       .  S
Mg1335     O1540   2.288   1_554  S
O1336     Mg1539   2.342       .  S
O1337      C1341   1.269       .  A
O1338     Mg1549   2.306       .  S
O1339      C1358   1.271       .  A
O1340      C1360   1.275       .  A
O1340     Mg1560   2.282   1_554  S
O1342     Mg1560   2.137   1_554  S
O1342      C1353   1.230       .  S
O1343     Mg1362   2.148       .  S
O1344     Mg1356   2.285       .  S
Mg1345     O1535   2.150   1_554  S
Mg1345     O1542   2.325   1_554  S
Mg1345     O1361   2.253       .  S
O1348     Mg1356   2.163       .  S
H1350      C1353   1.082       .  S
Mg1356     O1546   2.151       .  S
Mg1356     O1544   2.299       .  S
C1358      N1438   1.420       .  S
C1358      O1363   1.276       .  A
O1359      C1360   1.274       .  A
Mg1362     O1536   2.312       .  S
O1363     Mg1523   2.296       .  S
O1365     Mg1367   2.123       .  S
C1366      H1405   1.081       .  S
C1366      O1379   1.230       .  S
C1366      O1403   1.271       .  A
Mg1367     O1411   2.305       .  S
O1368     Mg1393   2.134       .  S
O1369      C1400   1.269       .  A
O1369     Mg1393   2.285       .  S
C1370      O1372   1.271       .  A
C1370      O1384   1.277       .  A
O1371      C1399   1.267       .  A
O1372     Mg1404   2.262       .  S
Mg1373     O1379   2.155       .  S
Mg1373     O1375   2.294       .  S
C1374      O1412   1.271       .  A
C1374      O1380   1.276       .  A
O1375      C1382   1.275       .  A
C1377      O1392   1.269       .  A
O1378      C1401   1.266       .  A
O1379     Mg1393   2.135       .  S
O1380     Mg1410   2.311       .  S
C1381      O1394   1.269       .  A
C1381      O1386   1.274       .  A
C1382      O1409   1.269       .  A
Mg1383     O1390   2.132       .  S
Mg1383     O1384   2.332       .  S
O1385      C1389   1.265       .  A
O1386     Mg1393   2.297       .  S
O1387      C1406   1.273       .  A
O1388      C1408   1.275       .  A
O1388     Mg1404   2.320       .  S
O1390     Mg1404   2.166       .  S
O1390      C1401   1.233       .  S
O1391     Mg1410   2.156       .  S
O1392     Mg1404   2.306       .  S
Mg1393     O1409   2.225       .  S
O1396     Mg1404   2.143       .  S
H1398      C1401   1.072       .  S
C1406      O1411   1.277       .  A
O1407      C1408   1.274       .  A
C1413      C1414   1.380       .  D
C1413      H1415   1.086       .  S
C1414      H1416   1.073       .  S
C1417      C1418   1.386       .  D
C1417      H1419   1.085       .  S
C1418      H1420   1.077       .  S
C1421      C1422   1.385       .  D
C1421      H1423   1.086       .  S
C1422      H1424   1.076       .  S
C1425      C1426   1.389       .  D
C1425      H1427   1.085       .  S
C1426      H1428   1.069       .  S
C1429      C1431   1.530       .  S
C1429      C1433   1.538       .  S
C1429      C1432   1.546       .  S
C1429      C1630   1.591       .  S
C1430      C1434   1.557       .  S
C1430      C1436   1.553       .  S
C1430      C1435   1.557       .  S
C1430      C1625   1.603       .  S
C1431      C1439   1.367       .  A
C1432      C1443   1.376       .  A
C1433      C1447   1.370       .  A
C1434      C1437   1.382       .  A
C1435      C1441   1.385       .  A
C1436      C1444   1.387       .  A
C1437      H1450   1.077       .  S
N1438      C1439   1.354       .  A
C1439      H1440   1.082       .  S
C1441      H1451   1.082       .  S
C1441      N1442   1.361       .  A
N1442      C1526   1.424       .  S
C1443      H1449   1.082       .  S
C1444      H1446   1.082       .  S
N1445      C1447   1.351       .  A
C1447      H1448   1.082       .  S
C1452      C1454   1.548       .  S
C1452      C1456   1.536       .  S
C1452      C1455   1.565       .  S
C1452      C1629   1.591       .  S
C1453      C1457   1.551       .  S
C1453      C1459   1.526       .  S
C1453      C1458   1.539       .  S
C1453      C1626   1.596       .  S
C1454      C1462   1.386       .  A
C1454      C1457   1.412       .  A
C1455      C1466   1.389       .  A
C1455      C1458   1.425       .  A
C1456      C1470   1.372       .  A
C1456      C1459   1.410       .  A
C1457      C1460   1.376       .  A
C1458      C1464   1.367       .  A
C1459      C1467   1.364       .  A
C1460      H1473   1.082       .  S
C1460      N1461   1.358       .  A
N1461      C1462   1.359       .  A
N1461      C1578   1.433       .  S
C1462      H1463   1.082       .  S
C1464      H1474   1.083       .  S
C1464      N1465   1.354       .  A
N1465      C1466   1.362       .  A
N1465      C1586   1.429       .  S
C1466      H1472   1.080       .  S
C1467      H1469   1.082       .  S
C1467      N1468   1.352       .  A
N1468      C1470   1.353       .  A
N1468      C1612   1.412       .  S
C1470      H1471   1.082       .  S
C1475      C1477   1.553       .  S
C1475      C1479   1.567       .  S
C1475      C1478   1.546       .  S
C1475      C1622   1.598       .  S
C1476      C1480   1.549   1_556  S
C1476      C1482   1.533   1_556  S
C1476      C1481   1.532   1_556  S
C1476      C1617   1.594       .  S
C1477      C1485   1.387       .  A
C1478      C1489   1.381       .  A
C1479      C1493   1.391       .  A
C1480      C1483   1.373   1_554  A
C1481      C1487   1.367   1_554  A
C1482      C1490   1.364   1_554  A
C1483      H1496   1.082       .  S
N1484      C1485   1.362       .  A
N1484      C1530   1.427       .  S
C1485      H1486   1.082       .  S
C1487      H1497   1.083       .  S
N1488      C1489   1.360       .  A
N1488      C1538   1.429       .  S
C1489      H1495   1.083       .  S
C1490      H1492   1.082       .  S
N1491      C1493   1.358       .  A
N1491      C1564   1.430       .  S
C1493      H1494   1.079       .  S
C1498      C1500   1.533       .  S
C1498      C1502   1.545       .  S
C1498      C1501   1.538       .  S
C1498      C1621   1.597       .  S
C1499      C1503   1.556       .  S
C1499      C1505   1.563       .  S
C1499      C1504   1.550       .  S
C1499      C1618   1.601       .  S
C1500      C1508   1.367       .  A
C1500      C1503   1.420       .  A
C1501      C1512   1.368       .  A
C1501      C1504   1.409       .  A
C1502      C1516   1.377       .  A
C1502      C1505   1.419       .  A
C1503      C1506   1.383       .  A
C1504      C1510   1.391       .  A
C1505      C1513   1.386       .  A
C1506      H1519   1.078       .  S
C1506      N1507   1.354       .  A
N1507      C1508   1.350       .  A
N1507      C1610   1.418       .  S
C1508      H1509   1.082       .  S
C1510      H1520   1.082       .  S
C1510      N1511   1.361       .  A
N1511      C1512   1.351       .  A
N1511      C1574   1.430       .  S
C1512      H1518   1.082       .  S
C1513      H1515   1.082       .  S
C1513      N1514   1.363       .  A
N1514      C1516   1.359       .  A
N1514      C1585   1.438       .  S
C1516      H1517   1.083       .  S
O1521     Mg1523   2.136       .  S
C1522      H1561   1.075       .  S
C1522      O1535   1.225       .  S
C1522      O1559   1.269       .  A
O1524     Mg1549   2.149       .  S
O1525      C1556   1.271       .  A
O1525     Mg1549   2.293       .  S
C1526      O1528   1.272       .  A
C1526      O1540   1.274       .  A
O1527      C1555   1.272   1_655  A
O1528     Mg1560   2.268       .  S
Mg1529     O1535   2.153   1_545  S
C1530      O1568   1.275       .  A
C1530      O1536   1.280       .  A
O1531      C1538   1.278       .  A
C1533      O1548   1.265       .  A
O1534      C1557   1.267       .  A
C1537      O1550   1.273       .  A
C1537      O1542   1.277       .  A
C1538      O1565   1.272       .  A
Mg1539     O1546   2.133       .  S
O1541      C1545   1.269       .  A
O1543      C1562   1.268       .  A
O1544      C1564   1.273       .  A
O1546      C1557   1.234       .  S
O1547     Mg1566   2.130       .  S
O1548     Mg1560   2.248       .  S
Mg1549     O1565   2.257       .  S
O1552     Mg1560   2.125       .  S
H1554      C1557   1.066       .  S
C1562      O1567   1.272       .  A
O1563      C1564   1.272       .  A
O1569     Mg1571   2.143       .  S
C1570      H1609   1.077       .  S
C1570      O1583   1.225       .  S
C1570      O1607   1.267       .  A
Mg1571     O1615   2.284       .  S
O1572     Mg1597   2.134       .  S
O1573      C1604   1.269   1_655  A
O1573     Mg1597   2.298       .  S
C1574      O1576   1.274       .  A
C1574      O1588   1.275       .  A
O1575      C1603   1.269   1_565  A
O1576     Mg1608   2.288       .  S
Mg1577     O1583   2.148   1_455  S
Mg1577     O1579   2.318   1_455  S
C1578      O1616   1.272       .  A
C1578      O1584   1.273       .  A
O1579      C1586   1.277       .  A
C1581      O1596   1.267       .  A
O1582      C1605   1.269       .  A
O1583     Mg1597   2.150       .  S
O1584     Mg1614   2.301       .  S
C1585      O1598   1.274       .  A
C1585      O1590   1.278       .  A
C1586      O1613   1.271       .  A
Mg1587     O1594   2.139       .  S
Mg1587     O1588   2.299       .  S
O1589      C1593   1.267       .  A
O1590     Mg1597   2.336       .  S
O1591      C1610   1.269       .  A
O1592      C1612   1.275       .  A
O1592     Mg1608   2.275       .  S
O1594     Mg1608   2.114       .  S
O1594      C1605   1.228       .  S
O1595     Mg1614   2.148   1_455  S
O1596     Mg1608   2.254       .  S
Mg1597     O1613   2.257       .  S
O1600     Mg1608   2.126       .  S
H1602      C1605   1.081       .  S
C1610      O1615   1.272       .  A
O1611      C1612   1.273       .  A
C1617      C1618   1.388       .  D
C1617      H1619   1.073       .  S
C1618      H1620   1.085       .  S
C1621      C1622   1.381       .  D
C1621      H1623   1.075       .  S
C1622      H1624   1.085       .  S
C1625      C1626   1.389       .  D
C1625      H1627   1.085       .  S
C1626      H1628   1.072       .  S
C1629      C1630   1.376       .  D
C1629      H1631   1.086       .  S
C1630      H1632   1.077       .  S
