geometry optimzed in LAMMPS
_audit_creation_date              2020-12-01 
_audit_creation_method            'lammps2cif' 
_symmetry_space_group_name_H-M    'P1' 
_symmetry_Int_Tables_number       1 
_symmetry_cell_setting            triclinic 
loop_ 
_symmetry_equiv_pos_as_xyz 
  x,y,z 
_cell_length_a                    32.73449879 
_cell_length_b                    32.871252047624665 
_cell_length_c                    25.91061959570037 
_cell_angle_alpha                 89.0323547820527 
_cell_angle_beta                  90.85827785023999 
_cell_angle_gamma                 119.71224724974931 
loop_ 
_atom_site_label 
_atom_site_type_symbol 
_atom_site_fract_x 
_atom_site_fract_y 
_atom_site_fract_z 
_atom_site_charge 
C1          C  0.66336406  0.33321918  0.08528594     0.30300
C2          C  0.66495630  0.34273207  0.97878448     0.30300
C3          C  0.68726534  0.31038412  0.05540805    -0.05900
C4          C  0.61583935  0.31454314  0.05776617    -0.06700
C5          C  0.69187962  0.38391991  0.06371101    -0.06600
C6          C  0.68776586  0.31488757  0.00156920    -0.05900
C7          C  0.61655532  0.31967239  0.00443873    -0.06700
C8          C  0.69310978  0.38868411  0.00963262    -0.06600
C9          C  0.71556637  0.29760704  0.98311406    -0.32000
N10         N  0.73105699  0.28234756  0.02378114     0.14500
C11         C  0.71596668  0.29187567  0.06788896    -0.32000
H12         H  0.72525852  0.28545483  0.10622001     0.16500
C13         C  0.57056461  0.30181206  0.98810890    -0.31000
N14         N  0.54229387  0.28559869  0.03010990     0.13200
C15         C  0.56955570  0.29306256  0.07275148    -0.31000
C16         C  0.72570629  0.43478363  0.99855461    -0.31300
N17         N  0.74160279  0.45846107  0.04336840     0.13700
H18         H  0.73700853  0.45045582  0.96067681     0.16400
C19         C  0.72242422  0.42771411  0.08335705    -0.31300
H20         H  0.72999403  0.43678422  0.12366586     0.16400
H21         H  0.55652175  0.28351773  0.11182813     0.16400
H22         H  0.72395676  0.29612799  0.94320140     0.16500
H23         H  0.55849938  0.30042152  0.94878530     0.16400
C24         C  0.66983617  0.32287675  0.47930156     0.30300
C25         C  0.67150453  0.33711247  0.58452475     0.30300
C26         C  0.69301240  0.30110662  0.51329968    -0.05900
C27         C  0.69460481  0.37431004  0.49723413    -0.06700
C28         C  0.62126786  0.30415916  0.50539428    -0.06600
C29         C  0.69322146  0.30742595  0.56652845    -0.05900
C30         C  0.69607500  0.38106774  0.55034825    -0.06700
C31         C  0.62217305  0.30969109  0.55899537    -0.06600
C32         C  0.71252262  0.28237754  0.58922915    -0.32000
N33         N  0.72562690  0.26324507  0.55139081     0.14500
C34         C  0.71354856  0.27401855  0.50497452    -0.32000
H35         H  0.71939501  0.26298143  0.46800345     0.16500
C36         C  0.71940185  0.42851926  0.55877743    -0.31000
N37         N  0.73163366  0.45085060  0.51242845     0.13200
C38         C  0.71577948  0.41840448  0.47455349    -0.31000
C39         C  0.57594769  0.28651701  0.57520758    -0.31300
N40         N  0.54726211  0.27062644  0.53322400     0.13700
H41         H  0.56385412  0.28161673  0.61441679     0.16400
C42         C  0.57444155  0.28206850  0.49052658    -0.31300
H43         H  0.56067797  0.27407147  0.45132480     0.16400
H44         H  0.71973132  0.42655384  0.43360289     0.16400
H45         H  0.71730309  0.27868496  0.63010449     0.16500
H46         H  0.72668377  0.44564041  0.59572286     0.16400
C47         C  0.32998843  0.66556133  0.01860866     0.30300
C48         C  0.33026894  0.66665281  0.91233760     0.30300
C49         C  0.30779718  0.69257883  0.99195778    -0.05900
C50         C  0.37895742  0.69101285  0.99308119    -0.06700
C51         C  0.30531268  0.61796740  0.99211476    -0.06600
C52         C  0.30796864  0.69312229  0.93790629    -0.05900
C53         C  0.37917522  0.69140872  0.93904214    -0.06700
C54         C  0.30529557  0.61859715  0.93874643    -0.06600
C55         C  0.29359260  0.72438577  0.92191611    -0.32000
N56         N  0.28292148  0.74098324  0.96408007     0.14500
C57         C  0.29321216  0.72350175  0.00694129    -0.32000
H58         H  0.29003234  0.73260837  0.04603998     0.16500
C59         C  0.42509972  0.72112261  0.92412220    -0.31000
N60         N  0.45246723  0.73763844  0.96709562     0.13200
C61         C  0.42455934  0.72092416  0.00918215    -0.31000
C62         C  0.27983137  0.57289188  0.92269769    -0.31300
N63         N  0.26477654  0.54467051  0.96508149     0.13700
H64         H  0.27243969  0.56094133  0.88316265     0.16400
C65         C  0.28014022  0.57174414  0.00779261    -0.31300
H66         H  0.27307613  0.55874655  0.04712093     0.16400
H67         H  0.43685514  0.72950171  0.04866908     0.16400
H68         H  0.29083682  0.73438658  0.88257159     0.16500
H69         H  0.43788790  0.72981940  0.88499268     0.16400
C70         C  0.33242904  0.66439570  0.41232215     0.30300
C71         C  0.33413624  0.66564362  0.51853406     0.30300
C72         C  0.30946852  0.68949179  0.43796024    -0.05900
C73         C  0.30912069  0.61573659  0.43971191    -0.06700
C74         C  0.38174670  0.68691148  0.43789792    -0.06600
C75         C  0.31020675  0.69003726  0.49135535    -0.05900
C76         C  0.31052050  0.61668571  0.49360876    -0.06700
C77         C  0.38280756  0.68775486  0.49198838    -0.06600
C78         C  0.28851924  0.71467976  0.50642827    -0.32000
N79         N  0.27504983  0.72908464  0.46335238     0.14500
C80         C  0.28742905  0.71381084  0.42130454    -0.32000
H81         H  0.28091480  0.72006899  0.38168607     0.16500
C82         C  0.29538574  0.57144240  0.51071860    -0.31000
N83         N  0.28198551  0.54271617  0.46959154     0.13200
C84         C  0.29188606  0.56933008  0.42595682    -0.31000
C85         C  0.42943073  0.70601762  0.50669249    -0.31300
N86         N  0.45619781  0.71709686  0.46357551     0.13700
H87         H  0.44314169  0.71151889  0.54583011     0.16400
C88         C  0.42746012  0.70434872  0.42158753    -0.31300
H89         H  0.43924006  0.70835431  0.38214546     0.16400
H90         H  0.28713133  0.55575375  0.38729954     0.16400
H91         H  0.28305126  0.72177964  0.54559634     0.16500
H92         H  0.29376003  0.55984196  0.55038248     0.13800
O93         O  0.06025914  0.98413382  0.03880825    -0.88100
C94         C  0.07171383  0.07423711  0.92214682     0.87900
Mg95       Mg  0.00994269  0.91051862  0.03606217     1.58100
O96         O  0.01401405  0.08146649  0.03232282    -0.87800
O97         O  0.07642007  0.04375854  0.08811160    -0.75200
C98         C  0.80541321  0.89602813  0.97318444     0.93000
O99         O  0.04267761  0.96388866  0.91769443    -0.75000
O100        O  0.82746155  0.87342449  0.96901497    -0.82500
Mg101      Mg  0.10306873  0.01440537  0.97102896     1.58000
C102        C  0.89147769  0.08938335  0.01298909     0.92900
O103        O  0.17094325  0.06688764  0.01541735    -0.80700
H104        H  0.01482393  0.09524837  0.10736254    -0.06100
C105        C  0.92569381  0.00061637  0.91701750     0.87900
O106        O  0.95802009  0.92077288  0.08600830    -0.75200
O107        O  0.07890343  0.06420319  0.96624498    -0.88000
O108        O  0.93439449  0.11028617  0.99938520    -0.80800
C109        C  0.08337663  0.19330515  0.97307560     0.93000
C110        C  0.18938203  0.10926784  0.03035452     0.92900
Mg111      Mg  0.89332340  0.99141703  0.02775431     1.58000
O112        O  0.82615717  0.93951430  0.98373285    -0.80700
O113        O  0.95250158  0.04235551  0.08124845    -0.75000
O114        O  0.10513007  0.17259119  0.99001920    -0.80800
O115        O  0.12824683  0.96133093  0.97434264    -0.82500
O116        O  0.89024870  0.83089138  0.01187747    -0.80900
C117        C  0.99472260  0.07445473  0.07465916     0.87300
O118        O  0.91740262  0.94084019  0.03410089    -0.88000
O119        O  0.93608205  0.01977098  0.95952824    -0.88100
O120        O  0.91563973  0.95829782  0.91178904    -0.75200
Mg121      Mg  0.08767905  0.10463599  0.03435036     1.58000
O122        O  0.03953561  0.17122242  0.96300381    -0.82500
H123        H  0.06690188  0.98150306  0.11533430    -0.06300
O124        O  0.98074952  0.92242160  0.96577546    -0.87800
H125        H  0.98038402  0.91224522  0.88983734    -0.06100
H126        H  0.90559030  0.93180048  0.10997180    -0.06300
C127        C  0.00027605  0.93155849  0.92333090     0.87300
C128        C  0.06834063  0.00217138  0.08191758     0.87900
C129        C  0.92566561  0.93088557  0.07780346     0.87900
H130        H  0.92624259  0.02070615  0.88323647    -0.06200
O131        O  0.03891777  0.08327828  0.91237667    -0.75300
Mg132      Mg  0.90607657  0.89847497  0.96682718     1.58000
H133        H  0.09284412  0.07373079  0.89082530    -0.06300
C134        C  0.10595983  0.91709770  0.98090938     0.92900
O135        O  0.95705478  0.83249771  0.03425058    -0.82500
C136        C  0.91272030  0.81035024  0.02712787     0.93000
O137        O  0.16519543  0.12932154  0.03681015    -0.82500
Mg138      Mg  0.98665866  0.09344131  0.96089283     1.58200
O139        O  0.06309455  0.89491352  0.99521434    -0.80800
O140        O  0.86845672  0.04532317  0.02132124    -0.82500
O141        O  0.98046118  0.06126675  0.47954019    -0.88100
C142        C  0.07257296  0.06169137  0.58835140     0.87900
Mg143      Mg  0.90727770  0.00832418  0.47714767     1.58100
O144        O  0.08014123  0.02103587  0.46543033    -0.87800
O145        O  0.04103422  0.08870270  0.42841703    -0.75200
C146        C  0.89977569  0.80294691  0.50507065     0.93000
O147        O  0.95847750  0.02678772  0.59692090    -0.75000
O148        O  0.87556912  0.82274341  0.51335740    -0.82500
Mg149      Mg  0.00849297  0.09471036  0.55284668     1.58000
C150        C  0.09296718  0.89993845  0.46214817     0.92900
O151        O  0.06071884  0.16887453  0.51934465    -0.80700
H152        H  0.09287929  0.03093861  0.38967030    -0.06100
C153        C  0.00236307  0.91828035  0.57090681     0.87900
O154        O  0.92158766  0.96647749  0.41668212    -0.75200
O155        O  0.06138065  0.07404602  0.54777853    -0.88000
O156        O  0.11340799  0.94255858  0.47584611    -0.80800
C157        C  0.19358831  0.08498135  0.52431355     0.93000
C158        C  0.10302560  0.19108312  0.50290346     0.92900
Mg159      Mg  0.99344862  0.89861591  0.45678372     1.58000
O160        O  0.94347201  0.82668463  0.49460023    -0.80700
O161        O  0.04305632  0.96479754  0.40969542    -0.75000
O162        O  0.17185568  0.10771107  0.51643764    -0.80800
O163        O  0.95179020  0.11591837  0.55734458    -0.82500
O164        O  0.83096380  0.88633377  0.48474809    -0.80900
C165        C  0.07327677  0.00682494  0.42054629     0.87300
O166        O  0.94115103  0.92009664  0.45856701    -0.88000
O167        O  0.02116278  0.93412478  0.52878716    -0.88100
O168        O  0.95932679  0.90530744  0.57826735    -0.75200
Mg169      Mg  0.10227662  0.09384548  0.47749050     1.58000
O170        O  0.17236907  0.04051346  0.52640708    -0.82500
H171        H  0.97764626  0.08041147  0.40664176    -0.06300
O172        O  0.91989598  0.97192667  0.53995331    -0.87800
H173        H  0.90787918  0.96076891  0.61559797    -0.06100
H174        H  0.93497734  0.91959079  0.38168615    -0.06300
C175        C  0.92739221  0.98529916  0.58518878     0.87300
C176        C  0.99868282  0.07738466  0.43726317     0.87900
C177        C  0.93227194  0.93419361  0.41768026     0.87900
H178        H  0.02333435  0.91622892  0.60264441    -0.06200
O179        O  0.08359742  0.02969369  0.58925541    -0.75300
Mg180      Mg  0.89849048  0.89939415  0.52699806     1.58000
H181        H  0.07170350  0.07763843  0.62422093    -0.06300
C182        C  0.90759110  0.09268169  0.54878056     0.92900
O183        O  0.82935958  0.95291317  0.47336083    -0.82500
C184        C  0.80894934  0.90837090  0.47438891     0.93000
O185        O  0.12509407  0.17015430  0.48978349    -0.82500
Mg186      Mg  0.09476464  0.98627391  0.52816731     1.58200
O187        O  0.88754611  0.05175077  0.52952878    -0.80800
O188        O  0.04865363  0.87590403  0.45587550    -0.82500
C189        C  0.25717684  0.49231343  0.47315176     0.01600
C190        C  0.28075405  0.46858529  0.49049806     0.04400
C191        C  0.25565865  0.41966304  0.49873021    -0.11600
C192        C  0.20669075  0.39418917  0.48957980     0.23700
C193        C  0.18293476  0.41806805  0.47316792    -0.12200
C194        C  0.20812938  0.46688122  0.46468270     0.05100
C195        C  0.18047597  0.34206898  0.49384013     0.27500
C196        C  0.17357385  0.31511929  0.44947013    -0.12900
C197        C  0.14714842  0.26587671  0.45220790     0.05600
C198        C  0.12810178  0.24302532  0.49963562    -0.08900
C199        C  0.13596121  0.27000708  0.54442784     0.06500
C200        C  0.16143128  0.31941591  0.54133281    -0.13200
Br201      Br  0.11555969  0.38370130  0.46351856    -0.05300
Br202      Br  0.34768375  0.50364786  0.50193798     0.00300
Br203      Br  0.13591616  0.22975281  0.39040314     0.00800
Br204      Br  0.17041701  0.35629129  0.60197773    -0.03600
Br205      Br  0.17514693  0.49920848  0.44337562     0.00900
Br206      Br  0.28809780  0.38747351  0.52296004    -0.02900
Br207      Br  0.20069939  0.34604123  0.38478524    -0.03800
Br208      Br  0.11474086  0.23940165  0.61068043     0.00200
C209        C  0.75719065  0.88064992  0.46890516     0.01600
C210        C  0.73454880  0.87652914  0.42101814     0.04400
C211        C  0.68515916  0.84832004  0.41693778    -0.11600
C212        C  0.65828498  0.82507146  0.46099035     0.23700
C213        C  0.68103983  0.82967988  0.50887133    -0.12200
C214        C  0.73025996  0.85710571  0.51275771     0.05100
C215        C  0.60596880  0.79723892  0.45809172     0.27500
C216        C  0.57917524  0.81956280  0.46505575    -0.12900
C217        C  0.52973358  0.79298739  0.46635321     0.05600
C218        C  0.50675551  0.74389467  0.46196036    -0.08900
C219        C  0.53337343  0.72157184  0.45446918     0.06500
C220        C  0.58289951  0.74816170  0.45221289    -0.13200
Br221      Br  0.64445154  0.79870416  0.56942023    -0.05300
Br222      Br  0.77133835  0.90879492  0.36116622     0.00300
Br223      Br  0.49300012  0.82362204  0.47318208     0.00800
Br224      Br  0.61936728  0.71758412  0.44183570    -0.03600
Br225      Br  0.76082890  0.86376668  0.57893820     0.00900
Br226      Br  0.65414321  0.84094158  0.35113948    -0.02900
Br227      Br  0.61044506  0.88650746  0.47408901    -0.03800
Br228      Br  0.50144154  0.65448917  0.44845964     0.00200
C229        C  0.12169237  0.87692546  0.45929501     0.01600
C230        C  0.13073628  0.86275848  0.41190451     0.04400
C231        C  0.15797564  0.84037188  0.41081693    -0.11600
C232        C  0.17655068  0.83264023  0.45710266     0.23700
C233        C  0.16859421  0.84814272  0.50426135    -0.12200
C234        C  0.14069881  0.86960365  0.50545069     0.05100
C235        C  0.20239032  0.80612851  0.45698854     0.27500
C236        C  0.17706984  0.75671259  0.45820885    -0.12900
C237        C  0.20128546  0.73137495  0.46051220     0.05600
C238        C  0.25065094  0.75518203  0.46215369    -0.08900
C239        C  0.27604527  0.80441477  0.46154961     0.06500
C240        C  0.25201226  0.82998776  0.45855525    -0.13200
Br241      Br  0.19580951  0.83970806  0.56736085    -0.05300
Br242      Br  0.10682674  0.87522399  0.34877874     0.00300
Br243      Br  0.16750026  0.66392654  0.46207567     0.00800
Br244      Br  0.28678304  0.89751879  0.45691971    -0.03600
Br245      Br  0.12660478  0.88701014  0.57093659     0.00900
Br246      Br  0.17013401  0.82038956  0.34614149    -0.02900
Br247      Br  0.10923341  0.72382979  0.45765344    -0.03800
Br248      Br  0.34367574  0.83610807  0.46543171     0.00200
C249        C  0.10936526  0.24513275  0.96929322     0.01600
C250        C  0.13368898  0.27153271  0.01320234     0.04400
C251        C  0.15698405  0.32074112  0.01115427    -0.11600
C252        C  0.15620491  0.34401566  0.96540260     0.23700
C253        C  0.13157935  0.31793416  0.92171429    -0.12200
C254        C  0.10816935  0.26855671  0.92359903     0.05100
C255        C  0.18321505  0.39597691  0.96298547     0.27500
C256        C  0.16313324  0.42253233  0.98040989    -0.12900
C257        C  0.19016862  0.47175720  0.98124590     0.05600
C258        C  0.23718443  0.49448867  0.96454179    -0.08900
C259        C  0.25707079  0.46796376  0.94679827     0.06500
C260        C  0.23018772  0.41880958  0.94602976    -0.13200
Br261      Br  0.13030917  0.35021817  0.85938407    -0.05300
Br262      Br  0.13336102  0.24068653  0.07751451     0.00300
Br263      Br  0.16287709  0.50842930  0.00416722     0.00800
Br264      Br  0.25788551  0.38246650  0.92291640    -0.03600
Br265      Br  0.07627010  0.23325083  0.86292469     0.00900
Br266      Br  0.19002579  0.35668769  0.07121314    -0.02900
Br267      Br  0.09881232  0.39130931  0.00348736    -0.03800
Br268      Br  0.32192362  0.49923779  0.92586117     0.00200
C269        C  0.75348774  0.87062355  0.97063491     0.01600
C270        C  0.72780725  0.84532268  0.01445160     0.04400
C271        C  0.67855081  0.82540549  0.01523095    -0.11600
C272        C  0.65458809  0.82999757  0.97182918     0.23700
C273        C  0.68021750  0.85459296  0.92766266    -0.12200
C274        C  0.72959611  0.87491228  0.92712028     0.05100
C275        C  0.60228061  0.80654316  0.97145739     0.27500
C276        C  0.57572744  0.75841027  0.96045439    -0.12900
C277        C  0.52634226  0.73583358  0.95991288     0.05600
C278        C  0.50304489  0.76139792  0.96828115    -0.08900
C279        C  0.52939218  0.80941309  0.97972320     0.06500
C280        C  0.57897890  0.83187620  0.98210827    -0.13200
Br281      Br  0.64744668  0.86022777  0.86794199    -0.05300
Br282      Br  0.76040017  0.83865207  0.07389117     0.00300
Br283      Br  0.49022105  0.66917666  0.95050144     0.00800
Br284      Br  0.61506844  0.89688182  0.00099668    -0.03600
Br285      Br  0.76464193  0.90754334  0.86648619     0.00900
Br286      Br  0.64376563  0.79228414  0.07597670    -0.02900
Br287      Br  0.60713629  0.72329587  0.94637709    -0.03800
Br288      Br  0.49710940  0.84389027  0.99157308     0.00200
C289        C  0.13157240  0.89090377  0.97529140     0.01600
C290        C  0.15033273  0.88899397  0.92732046     0.04400
C291        C  0.17666294  0.86581675  0.92333633    -0.11600
C292        C  0.18416632  0.84437418  0.96724897     0.23700
C293        C  0.16526268  0.84613937  0.01511046    -0.12200
C294        C  0.13909075  0.86933653  0.01915333     0.05100
C295        C  0.21036426  0.81835817  0.96318796     0.27500
C296        C  0.18535882  0.76942289  0.95665069    -0.12900
C297        C  0.20944823  0.74394851  0.95758654     0.05600
C298        C  0.25871863  0.76735734  0.96329836    -0.08900
C299        C  0.28390112  0.81627416  0.96837539     0.06500
C300        C  0.25979037  0.84183408  0.96876221    -0.13200
Br301      Br  0.17563165  0.81687661  0.07527645    -0.05300
Br302      Br  0.13826028  0.91641866  0.86677470     0.00300
Br303      Br  0.17506697  0.67668653  0.95309646     0.00800
Br304      Br  0.29416169  0.90874787  0.97756784    -0.03600
Br305      Br  0.11515821  0.87317134  0.08550125     0.00900
Br306      Br  0.20230929  0.86298833  0.85784179    -0.02900
Br307      Br  0.11803931  0.73743050  0.94667097    -0.03800
Br308      Br  0.35131627  0.84743309  0.97498951     0.00200
C309        C  0.33147108  0.66715212  0.57768483     0.01600
C310        C  0.36222979  0.70781569  0.60623163     0.04400
C311        C  0.36130220  0.70645001  0.66069729    -0.11600
C312        C  0.32940900  0.66514030  0.68684748     0.23700
C313        C  0.29539834  0.62698165  0.65862996    -0.12200
C314        C  0.29298462  0.63077687  0.60493384     0.05100
C315        C  0.32848184  0.66338016  0.74401627     0.27500
C316        C  0.36013122  0.65392572  0.77165413    -0.12900
C317        C  0.35929608  0.65236846  0.82601422     0.05600
C318        C  0.32819351  0.66281093  0.85315797    -0.08900
C319        C  0.29007379  0.66104637  0.82445956     0.06500
C320        C  0.29281655  0.66618536  0.77055432    -0.13200
Br321      Br  0.25109814  0.56968815  0.69329793    -0.05300
Br322      Br  0.39888707  0.76800158  0.57274883     0.00300
Br323      Br  0.39355347  0.62609024  0.86085728     0.00800
Br324      Br  0.24651421  0.67541231  0.73310481    -0.03600
Br325      Br  0.23098603  0.59626876  0.57386220     0.00900
Br326      Br  0.40223801  0.76151001  0.70004219    -0.02900
Br327      Br  0.40285565  0.64071584  0.73442598    -0.03800
Br328      Br  0.22846998  0.63639949  0.85458265     0.00200
C329        C  0.32979988  0.66604319  0.35312755     0.01600
C330        C  0.36060376  0.70662639  0.32384418     0.04400
C331        C  0.36049005  0.70458255  0.26945957    -0.11600
C332        C  0.32901485  0.66283852  0.24414872     0.23700
C333        C  0.29492841  0.62487676  0.27304157    -0.12200
C334        C  0.29190236  0.62943068  0.32618523     0.05100
C335        C  0.32798240  0.66075750  0.18696069     0.27500
C336        C  0.29095109  0.66115572  0.15905703    -0.12900
C337        C  0.28872881  0.65687719  0.10514624     0.05600
C338        C  0.32774744  0.66068888  0.07777168    -0.08900
C339        C  0.36041648  0.65234307  0.10634131     0.06500
C340        C  0.36163746  0.65442430  0.16064989    -0.13200
Br341      Br  0.25133001  0.56667534  0.24040414    -0.05300
Br342      Br  0.39634268  0.76734991  0.35561983     0.00300
Br343      Br  0.22762164  0.63326684  0.07261910     0.00800
Br344      Br  0.40863951  0.64737377  0.19946318    -0.03600
Br345      Br  0.22967613  0.59795413  0.35543908     0.00900
Br346      Br  0.40228209  0.75918667  0.22914132    -0.02900
Br347      Br  0.24282446  0.66739680  0.19449533    -0.03800
Br348      Br  0.39660939  0.62801382  0.07381711     0.00200
C349        C  0.87878714  0.11549381  0.55539499     0.01600
C350        C  0.87207691  0.12947571  0.60423603     0.04400
C351        C  0.84541720  0.15236194  0.60860527    -0.11600
C352        C  0.82596475  0.16175901  0.56409000     0.23700
C353        C  0.83228879  0.14728639  0.51547311    -0.12200
C354        C  0.85836096  0.12408841  0.51113426     0.05100
C355        C  0.80002074  0.18812185  0.56724167     0.27500
C356        C  0.75038787  0.16389442  0.56751058    -0.12900
C357        C  0.72581209  0.18882696  0.56222059     0.05600
C358        C  0.75061242  0.23797087  0.55883886    -0.08900
C359        C  0.80007607  0.26231794  0.56051879     0.06500
C360        C  0.82482425  0.23747337  0.56381457    -0.13200
Br361      Br  0.80590379  0.16030327  0.45443973    -0.05300
Br362      Br  0.89810709  0.11595255  0.66499253     0.00300
Br363      Br  0.65825636  0.15625985  0.55696822     0.00800
Br364      Br  0.89258576  0.27071344  0.56052453    -0.03600
Br365      Br  0.86782693  0.10601812  0.44367438     0.00900
Br366      Br  0.83520216  0.17076968  0.67527477    -0.02900
Br367      Br  0.71631741  0.09654313  0.57331453    -0.03800
Br368      Br  0.83344257  0.32967783  0.55606678     0.00200
C369        C  0.87628138  0.75077915  0.50516734     0.01600
C370        C  0.84412185  0.72371774  0.54437306     0.04400
C371        C  0.82185665  0.67439116  0.54361125    -0.11600
C372        C  0.83018386  0.65156801  0.50293506     0.23700
C373        C  0.86123657  0.67820642  0.46317901    -0.12200
C374        C  0.88461721  0.72753536  0.46444441     0.05100
C375        C  0.80568291  0.59946835  0.50174164     0.27500
C376        C  0.82924804  0.57534536  0.51825607    -0.12900
C377        C  0.80542138  0.52604096  0.51844678     0.05600
C378        C  0.75733748  0.50075285  0.50538950    -0.08900
C379        C  0.73390025  0.52465972  0.48851139     0.06500
C380        C  0.75834557  0.57389763  0.48520472    -0.13200
Br381      Br  0.87044468  0.64665719  0.40605442    -0.05300
Br382      Br  0.83090055  0.75359223  0.60014386     0.00300
Br383      Br  0.83833660  0.49253564  0.53535573     0.00800
Br384      Br  0.72701975  0.60639927  0.45839751    -0.03600
Br385      Br  0.92563587  0.76251746  0.40795513     0.00900
Br386      Br  0.77997733  0.63760246  0.59862105    -0.02900
Br387      Br  0.89347805  0.60978181  0.54243329    -0.03800
Br388      Br  0.66767100  0.48953073  0.47280127     0.00200
C389        C  0.49653347  0.24486261  0.53393978     0.01600
C390        C  0.47254628  0.20083818  0.55909528     0.04400
C391        C  0.42300354  0.17504441  0.55842685    -0.11600
C392        C  0.39704602  0.19312905  0.53283376     0.23700
C393        C  0.42090693  0.23739792  0.50827945    -0.12200
C394        C  0.47048483  0.26320667  0.50892704     0.05100
C395        C  0.34471458  0.16510718  0.53101990     0.27500
C396        C  0.32186686  0.13626170  0.48836598    -0.12900
C397        C  0.27238053  0.10999944  0.48635529     0.05600
C398        C  0.24550420  0.11127290  0.52777668    -0.08900
C399        C  0.26833162  0.13918370  0.57092336     0.06500
C400        C  0.31780263  0.16652169  0.57227961    -0.13200
Br401      Br  0.38545529  0.26253317  0.47382106    -0.05300
Br402      Br  0.50757150  0.17488736  0.59268145     0.00300
Br403      Br  0.24131456  0.07373258  0.42580642     0.00800
Br404      Br  0.34888839  0.20606302  0.63054488    -0.03600
Br405      Br  0.50289990  0.32462291  0.47742105     0.00900
Br406      Br  0.39035267  0.11433332  0.59169696    -0.02900
Br407      Br  0.35862084  0.13253898  0.43296965    -0.03800
Br408      Br  0.23162141  0.13849246  0.62875091     0.00200
C409        C  0.86747882  0.11744333  0.01593223     0.01600
C410        C  0.84607246  0.11928800  0.06198444     0.04400
C411        C  0.82408662  0.14683919  0.06423464    -0.11600
C412        C  0.82262554  0.17193251  0.02017648     0.23700
C413        C  0.84354249  0.16968769  0.97401179    -0.12200
C414        C  0.86643787  0.14310101  0.97202192     0.05100
C415        C  0.79892131  0.20054452  0.02190684     0.27500
C416        C  0.74966065  0.17890982  0.01599665    -0.12900
C417        C  0.72744194  0.20619660  0.01597436     0.05600
C418        C  0.75428754  0.25515309  0.02111376    -0.08900
C419        C  0.80337225  0.27684352  0.02661586     0.06500
C420        C  0.82574852  0.24963995  0.02735699    -0.13200
Br421      Br  0.84002068  0.20263551  0.91315982    -0.05300
Br422      Br  0.84889210  0.08593096  0.12264487     0.00300
Br423      Br  0.66005468  0.17684171  0.00970544     0.00800
Br424      Br  0.89303820  0.27942933  0.03608604    -0.03600
Br425      Br  0.89507907  0.14092315  0.90819622     0.00900
Br426      Br  0.79647477  0.15088581  0.12780233    -0.02900
Br427      Br  0.71275073  0.11195989  0.00758013    -0.03800
Br428      Br  0.83926091  0.34388916  0.03277028     0.00200
C429        C  0.76769819  0.50870104  0.04701930     0.01600
C430        C  0.81626639  0.53348252  0.03707228     0.04400
C431        C  0.84090002  0.58292545  0.03684176    -0.11600
C432        C  0.81690091  0.60771088  0.04675725     0.23700
C433        C  0.76830495  0.58276203  0.05706161    -0.12200
C434        C  0.74374181  0.53347849  0.05647105     0.05100
C435        C  0.84162282  0.65979099  0.04233571     0.27500
C436        C  0.86571150  0.68799114  0.08503912    -0.12900
C437        C  0.88813457  0.73727307  0.08065296     0.05600
C438        C  0.88677180  0.75861246  0.03343015    -0.08900
C439        C  0.86222872  0.73021662  0.99084686     0.06500
C440        C  0.83966515  0.68105964  0.99539288    -0.13200
Br441      Br  0.73514051  0.61635092  0.07005897    -0.05300
Br442      Br  0.84811111  0.49911295  0.02226184     0.00300
Br443      Br  0.91883709  0.77553643  0.13995570     0.00800
Br444      Br  0.80600494  0.64246121  0.93714436    -0.03600
Br445      Br  0.67646392  0.49964770  0.06427597     0.00900
Br446      Br  0.90704394  0.61683178  0.02111541    -0.02900
Br447      Br  0.86746531  0.65883431  0.14957949    -0.03800
Br448      Br  0.86123120  0.75842973  0.92516875     0.00200
C449        C  0.24118207  0.13780154  0.03537131     0.01600
C450        C  0.26546721  0.17815519  0.00373657     0.04400
C451        C  0.31490474  0.20358418  0.00412689    -0.11600
C452        C  0.34047536  0.19034580  0.03789967     0.23700
C453        C  0.31629535  0.15146601  0.07137953    -0.12200
C454        C  0.26678556  0.12444687  0.06912877     0.05100
C455        C  0.39272873  0.21548633  0.03565161     0.27500
C456        C  0.41560037  0.19535821  0.00920567    -0.12900
C457        C  0.46500472  0.21866630  0.00713617     0.05600
C458        C  0.49179806  0.26290766  0.02992656    -0.08900
C459        C  0.46893877  0.28387830  0.05461631     0.06500
C460        C  0.41954474  0.25990913  0.05832546    -0.13200
Br461      Br  0.35135521  0.13532723  0.12001208    -0.05300
Br462      Br  0.23134321  0.19734922  0.95705438     0.00300
Br463      Br  0.49617865  0.18912631  0.97512192     0.00800
Br464      Br  0.38859808  0.28768486  0.09468574    -0.03600
Br465      Br  0.23418280  0.06951168  0.11246619     0.00900
Br466      Br  0.34781177  0.25526610  0.95638246    -0.02900
Br467      Br  0.37908317  0.13591459  0.97538458    -0.03800
Br468      Br  0.50556231  0.34629968  0.08133458     0.00200
C469        C  0.67444466  0.34850406  0.64277169     0.01600
C470        C  0.63960371  0.35522388  0.66692426     0.04400
C471        C  0.63622199  0.35359666  0.72112601    -0.11600
C472        C  0.67252580  0.35450679  0.75185339     0.23700
C473        C  0.71321994  0.36010803  0.72755705    -0.12200
C474        C  0.71498146  0.35895043  0.67314877     0.05100
C475        C  0.66867824  0.35132124  0.80937356     0.27500
C476        C  0.67406334  0.38953240  0.83844631    -0.12900
C477        C  0.66641286  0.38468281  0.89218322     0.05600
C478        C  0.66222324  0.34476849  0.91903586    -0.08900
C479        C  0.65017506  0.30447674  0.88880793     0.06500
C480        C  0.65497030  0.30829153  0.83461789    -0.13200
Br481      Br  0.76674556  0.37020712  0.76916888    -0.05300
Br482      Br  0.60654874  0.38136688  0.62888756     0.00300
Br483      Br  0.64577295  0.42439929  0.92327594     0.00800
Br484      Br  0.64186066  0.25417189  0.79429728    -0.03600
Br485      Br  0.77565082  0.38157459  0.64154745     0.00900
Br486      Br  0.58153484  0.34991801  0.75290919    -0.02900
Br487      Br  0.69150498  0.44863569  0.80469489    -0.03800
Br488      Br  0.61912005  0.24222365  0.91890361     0.00200
C489        C  0.65873929  0.32538922  0.14464435     0.01600
C490        C  0.65661128  0.28497461  0.16799608     0.04400
C491        C  0.66397099  0.28351678  0.22143455    -0.11600
C492        C  0.66142013  0.31600282  0.25396354     0.23700
C493        C  0.65162323  0.34976569  0.23189508    -0.12200
C494        C  0.65006456  0.35446840  0.17757250     0.05100
C495        C  0.66609397  0.31311277  0.31127052     0.27500
C496        C  0.62978050  0.27729012  0.34074283    -0.12900
C497        C  0.63437798  0.27613144  0.39490863     0.05600
C498        C  0.67140132  0.31484343  0.42069754    -0.08900
C499        C  0.71177115  0.34406954  0.39073497     0.06500
C500        C  0.70832239  0.34467655  0.33636099    -0.13200
Br501      Br  0.63899644  0.38854488  0.27664811    -0.05300
Br502      Br  0.62717942  0.22565142  0.13265223     0.00300
Br503      Br  0.59964654  0.21629423  0.42989443     0.00800
Br504      Br  0.76163816  0.38822759  0.29590946    -0.03600
Br505      Br  0.62797369  0.39508700  0.15010769     0.00900
Br506      Br  0.67766018  0.23679768  0.24941295    -0.02900
Br507      Br  0.57358106  0.22971330  0.30740355    -0.03800
Br508      Br  0.77362745  0.37613315  0.42217391     0.00200
loop_ 
_geom_bond_atom_site_label_1 
_geom_bond_atom_site_label_2 
_geom_bond_distance 
_geom_bond_site_symmetry_2 
_ccdc_geom_bond_type 
C1            C3   1.548       .  S
C1            C5   1.550       .  S
C1            C4   1.530       .  S
C1          C489   1.552       .  S
C2            C6   1.546   1_556  S
C2            C8   1.552   1_556  S
C2            C7   1.533   1_556  S
C2          C478   1.552       .  S
C3           C11   1.381       .  A
C3            C6   1.400       .  A
C4           C15   1.376       .  A
C4            C7   1.388       .  A
C5           C19   1.383       .  A
C5            C8   1.406       .  A
C6            C9   1.384   1_554  A
C7           C13   1.380   1_554  A
C8           C16   1.382   1_554  A
C9           N10   1.355   1_556  A
C9           H22   1.082       .  S
N10          C11   1.353       .  A
N10         C418   1.435       .  S
C11          H12   1.082       .  S
C13          N14   1.359   1_556  A
C13          H23   1.081       .  S
N14          C15   1.356       .  A
N14         C458   1.437       .  S
C15          H21   1.084       .  S
C16          N17   1.355   1_556  A
C16          H18   1.082       .  S
N17          C19   1.358       .  A
N17         C429   1.439       .  S
C19          H20   1.082       .  S
C24          C26   1.536       .  S
C24          C28   1.553       .  S
C24          C27   1.545       .  S
C24         C498   1.552       .  S
C25          C29   1.545       .  S
C25          C31   1.550       .  S
C25          C30   1.531       .  S
C25         C469   1.551       .  S
C26          C34   1.377       .  A
C26          C29   1.398       .  A
C27          C38   1.384       .  A
C27          C30   1.394       .  A
C28          C42   1.383       .  A
C28          C31   1.402       .  A
C29          C32   1.382       .  A
C30          C36   1.375       .  A
C31          C39   1.383       .  A
C32          N33   1.357       .  A
C32          H45   1.082       .  S
N33          C34   1.356       .  A
N33         C358   1.435       .  S
C34          H35   1.083       .  S
C36          N37   1.355       .  A
C36          H46   1.081       .  S
N37          C38   1.357       .  A
N37         C378   1.435       .  S
C38          H44   1.084       .  S
C39          N40   1.357       .  A
C39          H41   1.076       .  S
N40          C42   1.357       .  A
N40         C389   1.443       .  S
C42          H43   1.087       .  S
C47          C49   1.548   1_554  S
C47          C51   1.529   1_554  S
C47          C50   1.546   1_554  S
C47         C338   1.538       .  S
C48          C52   1.547       .  S
C48          C54   1.527       .  S
C48          C53   1.549       .  S
C48         C318   1.538       .  S
C49          C57   1.383   1_556  A
C49          C52   1.400       .  A
C50          C61   1.382   1_556  A
C50          C53   1.400       .  A
C51          C65   1.379   1_556  A
C51          C54   1.383       .  A
C52          C55   1.381       .  A
C53          C59   1.383       .  A
C54          C62   1.376       .  A
C55          N56   1.354       .  A
C55          H68   1.082       .  S
N56          C57   1.355   1_556  A
N56         C298   1.435       .  S
C57          H58   1.082       .  S
C59          N60   1.359       .  A
C59          H69   1.081       .  S
N60          C61   1.356   1_556  A
N60         C278   1.439       .  S
C61          H67   1.083       .  S
C62          N63   1.356       .  A
C62          H64   1.084       .  S
N63          C65   1.357   1_556  A
N63         C258   1.435       .  S
C65          H66   1.081       .  S
C70          C72   1.528       .  S
C70          C74   1.547       .  S
C70          C73   1.553       .  S
C70         C329   1.536       .  S
C71          C75   1.530       .  S
C71          C77   1.552       .  S
C71          C76   1.546       .  S
C71         C309   1.539       .  S
C72          C80   1.377       .  A
C72          C75   1.384       .  A
C73          C84   1.390       .  A
C73          C76   1.397       .  A
C74          C88   1.381       .  A
C74          C77   1.402       .  A
C75          C78   1.379       .  A
C76          C82   1.381       .  A
C77          C85   1.385       .  A
C78          N79   1.356       .  A
C78          H91   1.082       .  S
N79          C80   1.355       .  A
N79         C238   1.433       .  S
C80          H81   1.082       .  S
C82          N83   1.352       .  A
C82          H92   1.083       .  S
N83          C84   1.358       .  A
N83         C189   1.441       .  S
C84          H90   1.081       .  S
C85          N86   1.359       .  A
C85          H87   1.084       .  S
N86          C88   1.356       .  A
N86         C218   1.440       .  S
C88          H89   1.080       .  S
O93         Mg95   2.151       .  S
O93        Mg101   2.161   1_564  S
O93         C128   1.236   1_565  S
C94         H133   1.080       .  S
C94         O107   1.235       .  S
C94         O131   1.269       .  A
Mg95        O124   2.163   1_454  S
Mg95        O139   2.317   1_554  S
Mg95        O135   2.275   1_455  S
Mg95        O106   2.308   1_455  S
O96        Mg138   2.158   1_454  S
O96        Mg121   2.139       .  S
O96         C117   1.234   1_455  S
O97         C128   1.270       .  A
O97        Mg121   2.296       .  S
C98         O100   1.273       .  A
C98         O112   1.275       .  A
C98         C269   1.477       .  S
O99         C127   1.271       .  A
O99        Mg101   2.306   1_565  S
O100       Mg132   2.282       .  S
Mg101       O107   2.143       .  S
Mg101       O115   2.269   1_545  S
Mg101       O103   2.329   1_556  S
C102        O140   1.275       .  A
C102        O108   1.273   1_554  A
C102        C409   1.482       .  S
O103        C110   1.278       .  A
H104        C117   1.084   1_455  S
C105        H130   1.082       .  S
C105        O119   1.235       .  S
C105        O120   1.270   1_545  A
O106        C129   1.272       .  A
O107       Mg121   2.156   1_556  S
O108       Mg138   2.288       .  S
C109        O122   1.272       .  A
C109        O114   1.275       .  A
C109        C249   1.482       .  S
C110        O137   1.271       .  A
C110        C449   1.481       .  S
Mg111       O118   2.168       .  S
Mg111       O119   2.163   1_564  S
Mg111       O112   2.306   1_554  S
Mg111       O113   2.293   1_565  S
Mg111       O140   2.290   1_565  S
O113        C117   1.268       .  A
O114       Mg121   2.303   1_556  S
O115        C134   1.272       .  A
O116        C136   1.276       .  A
O116       Mg132   2.314   1_554  S
O118       Mg132   2.160   1_554  S
O118        C129   1.236       .  S
O119       Mg138   2.153       .  S
O120       Mg132   2.304       .  S
Mg121       O137   2.249       .  S
O122       Mg138   2.270   1_455  S
H123        C128   1.078   1_565  S
O124       Mg132   2.165       .  S
O124        C127   1.236   1_655  S
H125        C127   1.083   1_655  S
H126        C129   1.079       .  S
O131       Mg138   2.294   1_455  S
C134        O139   1.277       .  A
C134        C289   1.480       .  S
O135        C136   1.273       .  A
C136        C438   1.484       .  S
O141       Mg143   2.154       .  S
O141       Mg149   2.163   1_655  S
O141        C176   1.234       .  S
C142        H181   1.082       .  S
C142        O155   1.235       .  S
C142        O179   1.270       .  A
Mg143       O172   2.157   1_545  S
Mg143       O187   2.303       .  S
Mg143       O183   2.286   1_545  S
Mg143       O154   2.302   1_545  S
O144       Mg186   2.153   1_545  S
O144       Mg169   2.156       .  S
O144        C165   1.236       .  S
O145        C176   1.268   1_455  A
O145       Mg169   2.293       .  S
C146        O148   1.272       .  A
C146        O160   1.275       .  A
C146        C369   1.492       .  S
O147        C175   1.272   1_545  A
O147       Mg149   2.306   1_655  S
O148       Mg180   2.277       .  S
Mg149       O155   2.157       .  S
Mg149       O163   2.288   1_455  S
Mg149       O151   2.337       .  S
C150        O188   1.271       .  A
C150        O156   1.272       .  A
C150        C229   1.473       .  S
O151        C158   1.280       .  A
H152        C165   1.082       .  S
C153        H178   1.086       .  S
C153        O167   1.235       .  S
C153        O168   1.270   1_455  A
O154        C177   1.271       .  A
O155       Mg169   2.168       .  S
O156       Mg186   2.288       .  S
C157        O170   1.270       .  A
C157        O162   1.274       .  A
C157        C398   1.478       .  S
C158        O185   1.272       .  A
C158        C198   1.485       .  S
Mg159       O166   2.152       .  S
Mg159       O167   2.154   1_655  S
Mg159       O160   2.316       .  S
Mg159       O161   2.308   1_655  S
Mg159       O188   2.272   1_655  S
O161        C165   1.271   1_565  A
O162       Mg169   2.309       .  S
O163        C182   1.275       .  A
O164        C184   1.273       .  A
O164       Mg180   2.296       .  S
O166       Mg180   2.156       .  S
O166        C177   1.237       .  S
O167       Mg186   2.156       .  S
O168       Mg180   2.305       .  S
Mg169       O185   2.261       .  S
O170       Mg186   2.268   1_545  S
H171        C176   1.078       .  S
O172       Mg180   2.157       .  S
O172        C175   1.237       .  S
H173        C175   1.078       .  S
H174        C177   1.081       .  S
O179       Mg186   2.299   1_545  S
C182        O187   1.276       .  A
C182        C349   1.480       .  S
O183        C184   1.273       .  A
C184        C209   1.479       .  S
C189        C190   1.407       .  A
C189        C194   1.411       .  A
C190        C191   1.411       .  A
C190       Br202   1.925       .  S
C191        C192   1.411       .  A
C191       Br206   1.927       .  S
C192        C193   1.409       .  A
C192        C195   1.491       .  S
C193        C194   1.409       .  A
C193       Br201   1.930       .  S
C194       Br205   1.923       .  S
C195        C196   1.409       .  A
C195        C200   1.410       .  A
C196        C197   1.408       .  A
C196       Br207   1.930       .  S
C197        C198   1.411       .  A
C197       Br203   1.930       .  S
C198        C199   1.414       .  A
C199        C200   1.412       .  A
C199       Br208   1.930       .  S
C200       Br204   1.929       .  S
C209        C210   1.409       .  A
C209        C214   1.411       .  A
C210        C211   1.413       .  A
C210       Br222   1.927       .  S
C211        C212   1.412       .  A
C211       Br226   1.927       .  S
C212        C213   1.408       .  A
C212        C215   1.490       .  S
C213        C214   1.406       .  A
C213       Br221   1.930       .  S
C214       Br225   1.932       .  S
C215        C216   1.410       .  A
C215        C220   1.412       .  A
C216        C217   1.408       .  A
C216       Br227   1.929       .  S
C217        C218   1.408       .  A
C217       Br223   1.925       .  S
C218        C219   1.407       .  A
C219        C220   1.411       .  A
C219       Br228   1.924       .  S
C220       Br224   1.928       .  S
C229        C230   1.407       .  A
C229        C234   1.411       .  A
C230        C231   1.410       .  A
C230       Br242   1.927       .  S
C231        C232   1.412       .  A
C231       Br246   1.927       .  S
C232        C233   1.408       .  A
C232        C235   1.485       .  S
C233        C234   1.404       .  A
C233       Br241   1.931       .  S
C234       Br245   1.933       .  S
C235        C236   1.411       .  A
C235        C240   1.411       .  A
C236        C237   1.406       .  A
C236       Br247   1.929       .  S
C237        C238   1.404       .  A
C237       Br243   1.926       .  S
C238        C239   1.406       .  A
C239        C240   1.408       .  A
C239       Br248   1.925       .  S
C240       Br244   1.928       .  S
C249        C250   1.415   1_556  A
C249        C254   1.412       .  A
C250        C251   1.406       .  A
C250       Br262   1.933       .  S
C251        C252   1.407   1_554  A
C251       Br266   1.932       .  S
C252        C253   1.409       .  A
C252        C255   1.485       .  S
C253        C254   1.411       .  A
C253       Br261   1.929       .  S
C254       Br265   1.929       .  S
C255        C256   1.410       .  A
C255        C260   1.409       .  A
C256        C257   1.408       .  A
C256       Br267   1.928   1_556  S
C257        C258   1.408       .  A
C257       Br263   1.927   1_556  S
C258        C259   1.407       .  A
C259        C260   1.406       .  A
C259       Br268   1.926       .  S
C260       Br264   1.929       .  S
C269        C270   1.411   1_556  A
C269        C274   1.407       .  A
C270        C271   1.408       .  A
C270       Br282   1.931       .  S
C271        C272   1.410   1_554  A
C271       Br286   1.930       .  S
C272        C273   1.411       .  A
C272        C275   1.489       .  S
C273        C274   1.410       .  A
C273       Br281   1.928       .  S
C274       Br285   1.927       .  S
C275        C276   1.409       .  A
C275        C280   1.412       .  A
C276        C277   1.405       .  A
C276       Br287   1.930       .  S
C277        C278   1.408       .  A
C277       Br283   1.923       .  S
C278        C279   1.408       .  A
C279        C280   1.412       .  A
C279       Br288   1.925       .  S
C280       Br284   1.928   1_556  S
C289        C290   1.411       .  A
C289        C294   1.411   1_556  A
C290        C291   1.411       .  A
C290       Br302   1.928       .  S
C291        C292   1.410       .  A
C291       Br306   1.928       .  S
C292        C293   1.409   1_556  A
C292        C295   1.487       .  S
C293        C294   1.407       .  A
C293       Br301   1.931       .  S
C294       Br305   1.931       .  S
C295        C296   1.409       .  A
C295        C300   1.412       .  A
C296        C297   1.406       .  A
C296       Br307   1.930       .  S
C297        C298   1.408       .  A
C297       Br303   1.925       .  S
C298        C299   1.404       .  A
C299        C300   1.410       .  A
C299       Br308   1.924       .  S
C300       Br304   1.927       .  S
C309        C310   1.423       .  A
C309        C314   1.421       .  A
C310        C311   1.411       .  A
C310       Br322   1.930       .  S
C311        C312   1.406       .  A
C311       Br326   1.931       .  S
C312        C313   1.403       .  A
C312        C315   1.482       .  S
C313        C314   1.399       .  A
C313       Br321   1.932       .  S
C314       Br325   1.937       .  S
C315        C316   1.404       .  A
C315        C320   1.406       .  A
C316        C317   1.409       .  A
C316       Br327   1.932       .  S
C317        C318   1.423       .  A
C317       Br323   1.929       .  S
C318        C319   1.420       .  A
C319        C320   1.403       .  A
C319       Br328   1.933       .  S
C320       Br324   1.932       .  S
C329        C330   1.424       .  A
C329        C334   1.413       .  A
C330        C331   1.412       .  A
C330       Br342   1.935       .  S
C331        C332   1.408       .  A
C331       Br346   1.931       .  S
C332        C333   1.406       .  A
C332        C335   1.484       .  S
C333        C334   1.398       .  A
C333       Br341   1.930       .  S
C334       Br345   1.930       .  S
C335        C336   1.408       .  A
C335        C340   1.406       .  A
C336        C337   1.403       .  A
C336       Br347   1.933       .  S
C337        C338   1.420       .  A
C337       Br343   1.936       .  S
C338        C339   1.424       .  A
C339        C340   1.409       .  A
C339       Br348   1.935       .  S
C340       Br344   1.932       .  S
C349        C350   1.410       .  A
C349        C354   1.413       .  A
C350        C351   1.413       .  A
C350       Br362   1.927       .  S
C351        C352   1.411       .  A
C351       Br366   1.927       .  S
C352        C353   1.408       .  A
C352        C355   1.488       .  S
C353        C354   1.405       .  A
C353       Br361   1.932       .  S
C354       Br365   1.933       .  S
C355        C356   1.411       .  A
C355        C360   1.411       .  A
C356        C357   1.409       .  A
C356       Br367   1.927       .  S
C357        C358   1.405       .  A
C357       Br363   1.925       .  S
C358        C359   1.407       .  A
C359        C360   1.408       .  A
C359       Br368   1.925       .  S
C360       Br364   1.929       .  S
C369        C370   1.416       .  A
C369        C374   1.419       .  A
C370        C371   1.411       .  A
C370       Br382   1.931       .  S
C371        C372   1.409       .  A
C371       Br386   1.931       .  S
C372        C373   1.407       .  A
C372        C375   1.489       .  S
C373        C374   1.410       .  A
C373       Br381   1.932       .  S
C374       Br385   1.934       .  S
C375        C376   1.411       .  A
C375        C380   1.412       .  A
C376        C377   1.408       .  A
C376       Br387   1.929       .  S
C377        C378   1.407       .  A
C377       Br383   1.927       .  S
C378        C379   1.405       .  A
C379        C380   1.407       .  A
C379       Br388   1.925       .  S
C380       Br384   1.927       .  S
C389        C390   1.412       .  A
C389        C394   1.411       .  A
C390        C391   1.409       .  A
C390       Br402   1.927       .  S
C391        C392   1.409       .  A
C391       Br406   1.930       .  S
C392        C393   1.410       .  A
C392        C395   1.490       .  S
C393        C394   1.410       .  A
C393       Br401   1.929       .  S
C394       Br405   1.927       .  S
C395        C396   1.410       .  A
C395        C400   1.411       .  A
C396        C397   1.409       .  A
C396       Br407   1.930       .  S
C397        C398   1.412       .  A
C397       Br403   1.931       .  S
C398        C399   1.407       .  A
C399        C400   1.410       .  A
C399       Br408   1.928       .  S
C400       Br404   1.927       .  S
C409        C410   1.410       .  A
C409        C414   1.415   1_554  A
C410        C411   1.411       .  A
C410       Br422   1.928       .  S
C411        C412   1.411       .  A
C411       Br426   1.928       .  S
C412        C413   1.408   1_554  A
C412        C415   1.488       .  S
C413        C414   1.407       .  A
C413       Br421   1.932       .  S
C414       Br425   1.933       .  S
C415        C416   1.410       .  A
C415        C420   1.412       .  A
C416        C417   1.407       .  A
C416       Br427   1.930       .  S
C417        C418   1.408       .  A
C417       Br423   1.926       .  S
C418        C419   1.404       .  A
C419        C420   1.409       .  A
C419       Br428   1.924       .  S
C420       Br424   1.928       .  S
C429        C430   1.407       .  A
C429        C434   1.409       .  A
C430        C431   1.412       .  A
C430       Br442   1.925       .  S
C431        C432   1.412       .  A
C431       Br446   1.927       .  S
C432        C433   1.409       .  A
C432        C435   1.490       .  S
C433        C434   1.407       .  A
C433       Br441   1.929       .  S
C434       Br445   1.925       .  S
C435        C436   1.410       .  A
C435        C440   1.409   1_554  A
C436        C437   1.412       .  A
C436       Br447   1.928       .  S
C437        C438   1.411       .  A
C437       Br443   1.928       .  S
C438        C439   1.414   1_554  A
C439        C440   1.408       .  A
C439       Br448   1.932       .  S
C440       Br444   1.932       .  S
C449        C450   1.415       .  A
C449        C454   1.411       .  A
C450        C451   1.406       .  A
C450       Br462   1.934   1_554  S
C451        C452   1.408       .  A
C451       Br466   1.932   1_554  S
C452        C453   1.412       .  A
C452        C455   1.487       .  S
C453        C454   1.411       .  A
C453       Br461   1.930       .  S
C454       Br465   1.928       .  S
C455        C456   1.411       .  A
C455        C460   1.411       .  A
C456        C457   1.407       .  A
C456       Br467   1.930   1_554  S
C457        C458   1.408       .  A
C457       Br463   1.925   1_554  S
C458        C459   1.409       .  A
C459        C460   1.408       .  A
C459       Br468   1.926       .  S
C460       Br464   1.929       .  S
C469        C470   1.420       .  A
C469        C474   1.423       .  A
C470        C471   1.408       .  A
C470       Br482   1.934       .  S
C471        C472   1.409       .  A
C471       Br486   1.930       .  S
C472        C473   1.408       .  A
C472        C475   1.495       .  S
C473        C474   1.414       .  A
C473       Br481   1.929       .  S
C474       Br485   1.932       .  S
C475        C476   1.409       .  A
C475        C480   1.406       .  A
C476        C477   1.411       .  A
C476       Br487   1.930       .  S
C477        C478   1.421       .  A
C477       Br483   1.933       .  S
C478        C479   1.425       .  A
C479        C480   1.412       .  A
C479       Br488   1.933       .  S
C480       Br484   1.932       .  S
C489        C490   1.421       .  A
C489        C494   1.423       .  A
C490        C491   1.406       .  A
C490       Br502   1.934       .  S
C491        C492   1.407       .  A
C491       Br506   1.929       .  S
C492        C493   1.410       .  A
C492        C495   1.497       .  S
C493        C494   1.416       .  A
C493       Br501   1.931       .  S
C494       Br505   1.929       .  S
C495        C496   1.411       .  A
C495        C500   1.409       .  A
C496        C497   1.411       .  A
C496       Br507   1.929       .  S
C497        C498   1.418       .  A
C497       Br503   1.933       .  S
C498        C499   1.421       .  A
C499        C500   1.412       .  A
C499       Br508   1.934       .  S
C500       Br504   1.929       .  S
