geometry optimzed in LAMMPS
_audit_creation_date              2020-12-01 
_audit_creation_method            'lammps2cif' 
_symmetry_space_group_name_H-M    'P1' 
_symmetry_Int_Tables_number       1 
_symmetry_cell_setting            triclinic 
loop_ 
_symmetry_equiv_pos_as_xyz 
  x,y,z 
_cell_length_a                    99.40949145 
_cell_length_b                    99.13939775854139 
_cell_length_c                    99.22958141792573 
_cell_angle_alpha                 90.03826563545863 
_cell_angle_beta                  90.00625373109924 
_cell_angle_gamma                 90.13156526492351 
loop_ 
_atom_site_label 
_atom_site_type_symbol 
_atom_site_fract_x 
_atom_site_fract_y 
_atom_site_fract_z 
_atom_site_charge 
N1          N  0.75559582  0.19207856  0.42367104    -0.25500
N2          N  0.74444885  0.18488169  0.42215311    -0.33400
C3          C  0.74288903  0.18167220  0.40907967     0.02800
C4          C  0.75352159  0.18702690  0.40195798     0.08800
C5          C  0.76139953  0.19361204  0.41144757    -0.04300
H6          H  0.73435722  0.17623273  0.40500516     0.09500
H7          H  0.77048328  0.19934009  0.40957330     0.10700
Cu8        Cu  0.73058332  0.18096722  0.43722075     0.44200
Cu9        Cu  0.76199297  0.19986120  0.44239016     0.42000
Cu10       Cu  0.73786105  0.19386006  0.46943299     0.43900
N11         N  0.71600455  0.18295319  0.45194556    -0.32900
N12         N  0.71876778  0.18782946  0.46401111    -0.27200
C13         C  0.70728668  0.19179836  0.46992772    -0.03300
C14         C  0.69678791  0.18939003  0.46113199     0.09000
C15         C  0.70266612  0.18370845  0.44985869     0.02700
H16         H  0.70689760  0.19799854  0.47890028     0.10400
H17         H  0.69795697  0.18237022  0.44011434     0.09500
N18         N  0.75629290  0.20300677  0.47224845    -0.34400
N19         N  0.76519515  0.20549117  0.46263329    -0.26500
C20         C  0.77593404  0.21171324  0.46827184    -0.01800
C21         C  0.77350104  0.21312350  0.48197744     0.06800
C22         C  0.76100667  0.20754596  0.48409303     0.04900
H23         H  0.78483923  0.21486416  0.46284322     0.10000
H24         H  0.75570076  0.20677297  0.49358376     0.08900
N25         N  0.66722356  0.30504358  0.41752447    -0.25500
N26         N  0.66885150  0.29232258  0.41384007    -0.33400
C27         C  0.67410740  0.29190120  0.40138031     0.02800
C28         C  0.67586177  0.30494510  0.39696392     0.08800
C29         C  0.67144106  0.31309400  0.40739552    -0.04300
H30         H  0.67665442  0.28274429  0.39602540     0.09500
H31         H  0.67149131  0.32400366  0.40770160     0.10700
Cu32       Cu  0.66433192  0.27588525  0.42582123     0.44200
Cu33       Cu  0.65982481  0.31038162  0.43650158     0.42000
Cu34       Cu  0.64741320  0.28161427  0.45667769     0.43900
N35         N  0.65951879  0.26051763  0.43903794    -0.32900
N36         N  0.65297980  0.26253089  0.45044650    -0.27200
C37         C  0.65260361  0.25090740  0.45745434    -0.03300
C38         C  0.65913782  0.24117169  0.44996417     0.09000
C39         C  0.66345331  0.24758212  0.43841274     0.02700
H40         H  0.64868842  0.24987466  0.46757636     0.10400
H41         H  0.66970060  0.24338952  0.43053144     0.09500
N42         N  0.64821779  0.30135568  0.46333583    -0.34400
N43         N  0.65315976  0.31167459  0.45643935    -0.26500
C44         C  0.65479762  0.32218613  0.46491559    -0.01800
C45         C  0.65060626  0.31824454  0.47761006     0.06800
C46         C  0.64653382  0.30504085  0.47624353     0.04900
H47         H  0.65975218  0.33155067  0.46228791     0.10000
H48         H  0.64388181  0.29817564  0.48429679     0.08900
N49         N  0.68851120  0.31629701  0.59764441    -0.25500
N50         N  0.70045638  0.31856336  0.60308975    -0.33400
C51         C  0.70044268  0.31409422  0.61586348     0.02800
C52         C  0.68791022  0.30882153  0.61859736     0.08800
C53         C  0.68054141  0.31032030  0.60688497    -0.04300
H54         H  0.70891466  0.31475078  0.62268370     0.09500
H55         H  0.67018000  0.30740110  0.60521758     0.10700
Cu56       Cu  0.71627389  0.32794024  0.59327934     0.44200
Cu57       Cu  0.68373715  0.32183105  0.57799274     0.42000
Cu58       Cu  0.70976652  0.34118988  0.56042642     0.43900
N59         N  0.73083776  0.33730796  0.58168476    -0.32900
N60         N  0.72845730  0.34230539  0.56957632    -0.27200
C61         C  0.74018653  0.34615528  0.56398675    -0.03300
C62         C  0.75035519  0.34351604  0.57308654     0.09000
C63         C  0.74411933  0.33786444  0.58415260     0.02700
H64         H  0.74132363  0.34955952  0.55369056     0.10400
H65         H  0.74896018  0.33348106  0.59287566     0.09500
N66         N  0.69122322  0.33631116  0.55221864    -0.34400
N67         N  0.68187076  0.32906914  0.55839551    -0.26500
C68         C  0.67161541  0.32690280  0.54978316    -0.01800
C69         C  0.67469729  0.33315080  0.53773271     0.06800
C70         C  0.68716957  0.33895157  0.53957095     0.04900
H71         H  0.66280693  0.32086943  0.55200088     0.10000
H72         H  0.69311975  0.34423452  0.53211418     0.08900
N73         N  0.82085842  0.26030690  0.59407008    -0.25500
N74         N  0.82650759  0.27226132  0.59607808    -0.33400
C75         C  0.82812796  0.27434140  0.60935103     0.02800
C76         C  0.82327084  0.26326037  0.61611872     0.08800
C77         C  0.81872109  0.25450435  0.60620510    -0.04300
H78         H  0.83168452  0.28367625  0.61376563     0.09500
H79         H  0.81363713  0.24496497  0.60771648     0.10700
Cu80       Cu  0.82870441  0.28710965  0.58171697     0.44200
Cu81       Cu  0.81507501  0.25318123  0.57488782     0.42000
Cu82       Cu  0.81700188  0.27958807  0.54949662     0.43900
N83         N  0.82203870  0.30196253  0.56885451    -0.32900
N84         N  0.81742717  0.29906776  0.55672805    -0.27200
C85         C  0.80995464  0.30942241  0.55227624    -0.03300
C86         C  0.80985140  0.31929777  0.56209828     0.09000
C87         C  0.81761080  0.31424505  0.57247478     0.02700
H88         H  0.80343929  0.30891183  0.54355119     0.10400
H89         H  0.81819315  0.31820851  0.58262311     0.09500
N90         N  0.81217118  0.25981757  0.54524027    -0.34400
N91         N  0.81084521  0.25009092  0.55428541    -0.26500
C92         C  0.80618293  0.23893956  0.54793431    -0.01800
C93         C  0.80462986  0.24196338  0.53435623     0.06800
C94         C  0.80849305  0.25521608  0.53306426     0.04900
H95         H  0.80379259  0.22950205  0.55286270     0.10000
H96         H  0.80815211  0.26128468  0.52401114     0.08900
N97         N  0.70616771  0.20864764  0.91044407    -0.25500
N98         N  0.71845545  0.21021539  0.90550195    -0.33400
C99         C  0.71757073  0.21450620  0.89267219     0.02800
C100        C  0.70414550  0.21566878  0.88937243     0.08800
C101        C  0.69715847  0.21189590  0.90081502    -0.04300
H102        H  0.72609782  0.21666158  0.88623945     0.09500
H103        H  0.68635370  0.21161271  0.90209474     0.10700
Cu104      Cu  0.73615086  0.20656964  0.91608078     0.44200
Cu105      Cu  0.70213433  0.20246750  0.93018348     0.42000
Cu106      Cu  0.73207129  0.19394925  0.94931771     0.43900
N107        N  0.75232779  0.20203642  0.92855240    -0.32900
N108        N  0.75072563  0.19720524  0.94085524    -0.27200
C109        C  0.76281364  0.19600133  0.94680823    -0.03300
C110        C  0.77247035  0.20018704  0.93775262     0.09000
C111        C  0.76553825  0.20403173  0.92631299     0.02700
H112        H  0.76437145  0.19292196  0.95715067     0.10400
H113        H  0.76971030  0.20848906  0.91727873     0.09500
N114        N  0.71286043  0.19347365  0.95711543    -0.34400
N115        N  0.70180816  0.19675011  0.95045647    -0.26500
C116        C  0.69132222  0.19648713  0.95911395    -0.01800
C117        C  0.69616228  0.19281545  0.97167402     0.06800
C118        C  0.70977559  0.19102334  0.97003574     0.04900
H119        H  0.68111126  0.19925179  0.95657152     0.10000
H120        H  0.71704757  0.18870759  0.97781015     0.08900
N121        N  0.82303692  0.29269067  0.92390199    -0.25500
N122        N  0.82876724  0.28170539  0.91897356    -0.33400
C123        C  0.82660175  0.28114828  0.90562361     0.02800
C124        C  0.81914080  0.29225529  0.90197668     0.08800
C125        C  0.81707942  0.29944317  0.91373163    -0.04300
H126        H  0.82969753  0.27292296  0.89916094     0.09500
H127        H  0.81128701  0.30859238  0.91490806     0.10700
Cu128      Cu  0.83684592  0.26642931  0.93058310     0.44200
Cu129      Cu  0.82224442  0.29701320  0.94445242     0.42000
Cu130      Cu  0.83046680  0.26862764  0.96594380     0.43900
N131        N  0.83645629  0.24974934  0.94301650    -0.32900
N132        N  0.83361319  0.25049087  0.95600045    -0.27200
C133        C  0.82938961  0.23831968  0.96024414    -0.03300
C134        C  0.82948756  0.22954411  0.94941182     0.09000
C135        C  0.83415139  0.23710585  0.93870332     0.02700
H136        H  0.82445327  0.23662109  0.96981605     0.10400
H137        H  0.83350319  0.23432971  0.92817139     0.09500
N138        N  0.82438398  0.28729477  0.97320481    -0.34400
N139        N  0.82133642  0.29770092  0.96543967    -0.26500
C140        C  0.81721693  0.30799802  0.97330282    -0.01800
C141        C  0.81770697  0.30379727  0.98657849     0.06800
C142        C  0.82226322  0.29066555  0.98616227     0.04900
H143        H  0.81390056  0.31770052  0.96960560     0.10000
H144        H  0.82370676  0.28395397  0.99463281     0.08900
N145        N  0.70463772  0.18751261  0.09870713    -0.25500
N146        N  0.71686333  0.18568099  0.10367320    -0.33400
C147        C  0.71638992  0.18621834  0.11715892     0.02800
C148        C  0.70332386  0.18855821  0.12097228     0.08800
C149        C  0.69602053  0.18929650  0.10909610    -0.04300
H150        H  0.72507601  0.18552337  0.12369515     0.09500
H151        H  0.68539566  0.19139427  0.10805610     0.10700
Cu152      Cu  0.73441155  0.18453436  0.09267109     0.44200
Cu153      Cu  0.70084897  0.18854745  0.07794071     0.42000
Cu154      Cu  0.73215220  0.18976303  0.05802967     0.43900
N155        N  0.75126177  0.18769072  0.08097866    -0.32900
N156        N  0.75041254  0.18978555  0.06788309    -0.27200
C157        C  0.76240282  0.19405898  0.06328086    -0.03300
C158        C  0.77119628  0.19462169  0.07404154     0.09000
C159        C  0.76380401  0.19060326  0.08512190     0.02700
H160        H  0.76414399  0.19788462  0.05321891     0.10400
H161        H  0.76684765  0.19123443  0.09557570     0.09500
N162        N  0.71301925  0.19036054  0.04998646    -0.34400
N163        N  0.70160299  0.18984244  0.05685740    -0.26500
C164        C  0.69126085  0.19028637  0.04802994    -0.01800
C165        C  0.69656946  0.19115761  0.03515655     0.06800
C166        C  0.71029956  0.19119026  0.03677847     0.04900
H167        H  0.68073482  0.18994000  0.05077665     0.10000
H168        H  0.71782607  0.19167358  0.02891242     0.08900
N169        N  0.78065657  0.31019752  0.10767487    -0.25500
N170        N  0.78138490  0.29797178  0.11299475    -0.33400
C171        C  0.77544622  0.29788284  0.12511647     0.02800
C172        C  0.77074071  0.31061035  0.12773744     0.08800
C173        C  0.77419385  0.31828788  0.11654467    -0.04300
H174        H  0.77500462  0.28922533  0.13174137     0.09500
H175        H  0.77244945  0.32895845  0.11510871     0.10700
Cu176      Cu  0.79116908  0.28169001  0.10481368     0.44200
Cu177      Cu  0.78921187  0.31486411  0.08874687     0.42000
Cu178      Cu  0.81272478  0.28808792  0.07830074     0.43900
N179        N  0.80153175  0.26642967  0.09546763    -0.32900
N180        N  0.80983572  0.26879522  0.08538387    -0.27200
C181        C  0.81311963  0.25701600  0.07951231    -0.03300
C182        C  0.80666898  0.24680785  0.08645660     0.09000
C183        C  0.79938400  0.25310765  0.09646224     0.02700
H184        H  0.81858417  0.25610328  0.07012706     0.10400
H185        H  0.79198317  0.24851227  0.10302006     0.09500
N186        N  0.80900814  0.30536383  0.06748814    -0.34400
N187        N  0.79988554  0.31466081  0.07033424    -0.26500
C188        C  0.79813669  0.32239920  0.05923068    -0.01800
C189        C  0.80666893  0.31768270  0.04919041     0.06800
C190        C  0.81333711  0.30697511  0.05481340     0.04900
H191        H  0.79061400  0.33020639  0.05825178     0.10000
H192        H  0.81989066  0.29997506  0.04963679     0.08900
N193        N  0.80952474  0.91227574  0.28952769    -0.25500
N194        N  0.80992439  0.90792376  0.27692609    -0.33400
C195        C  0.81177030  0.89450611  0.27692264     0.02800
C196        C  0.81262569  0.89028998  0.29012137     0.08800
C197        C  0.81114433  0.90172207  0.29789645    -0.04300
H198        H  0.81257395  0.88832632  0.26796620     0.09500
H199        H  0.81136225  0.90237404  0.30877830     0.10700
Cu200      Cu  0.80816284  0.92024286  0.26019938     0.44200
Cu201      Cu  0.80704866  0.93236224  0.29469966     0.42000
Cu202      Cu  0.80042506  0.95481960  0.26635902     0.43900
N203        N  0.80454763  0.93394634  0.24492889    -0.32900
N204        N  0.80140069  0.94668770  0.24718001    -0.27200
C205        C  0.79761886  0.95241853  0.23549840    -0.03300
C206        C  0.79854157  0.94281719  0.22544605     0.09000
C207        C  0.80288890  0.93122476  0.23176843     0.02700
H208        H  0.79332483  0.96240156  0.23463724     0.10400
H209        H  0.80346515  0.92123249  0.22741423     0.09500
N210        N  0.80141147  0.96094769  0.28627069    -0.34400
N211        N  0.80414072  0.95296528  0.29659591    -0.26500
C212        C  0.80513751  0.96050506  0.30785902    -0.01800
C213        C  0.80281797  0.97376715  0.30434416     0.06800
C214        C  0.80051177  0.97371187  0.29066675     0.04900
H215        H  0.80774067  0.95666047  0.31772049     0.10000
H216        H  0.79883853  0.98237878  0.28426376     0.08900
N217        N  0.69313889  0.90865768  0.22705477    -0.25500
N218        N  0.70310835  0.90229791  0.22089561    -0.33400
C219        C  0.70340448  0.88938489  0.22500149     0.02800
C220        C  0.69316728  0.88743274  0.23415001     0.08800
C221        C  0.68681781  0.89981692  0.23527447    -0.04300
H222        H  0.71062007  0.88197018  0.22159895     0.09500
H223        H  0.67827485  0.90222764  0.24157813     0.10700
Cu224      Cu  0.71637932  0.91104400  0.20734056     0.44200
Cu225      Cu  0.68864879  0.92910506  0.22371912     0.42000
Cu226      Cu  0.70794140  0.94329667  0.19573852     0.43900
N227        N  0.72938689  0.92245285  0.19566524    -0.32900
N228        N  0.72615613  0.93456423  0.19123496    -0.27200
C229        C  0.73734298  0.94093142  0.18700983    -0.03300
C230        C  0.74811717  0.93234715  0.18877922     0.09000
C231        C  0.74271592  0.92072972  0.19427688     0.02700
H232        H  0.73785269  0.95158933  0.18470574     0.10400
H233        H  0.74827945  0.91248427  0.19872238     0.09500
N234        N  0.69320883  0.95356705  0.20605312    -0.34400
N235        N  0.68666445  0.94901979  0.21675155    -0.26500
C236        C  0.67982225  0.95940427  0.22229572    -0.01800
C237        C  0.68218064  0.97081911  0.21456829     0.06800
C238        C  0.69068873  0.96674446  0.20445020     0.04900
H239        H  0.67421653  0.95885475  0.23162454     0.10000
H240        H  0.69559284  0.97312532  0.19708338     0.08900
N241        N  0.78933149  0.09781608  0.31372269    -0.25500
N242        N  0.79256368  0.10557900  0.30336010    -0.33400
C243        C  0.78679581  0.11772343  0.30490535     0.02800
C244        C  0.77960577  0.11765190  0.31677227     0.08800
C245        C  0.78137076  0.10490229  0.32216264    -0.04300
H246        H  0.78758820  0.12592854  0.29776165     0.09500
H247        H  0.77707868  0.10100861  0.33139763     0.10700
Cu248      Cu  0.80394761  0.09939992  0.28698803     0.44200
Cu249      Cu  0.79582498  0.07786688  0.31551717     0.42000
Cu250      Cu  0.82058883  0.06805362  0.29019643     0.43900
N251        N  0.81352471  0.09005481  0.27097287    -0.32900
N252        N  0.82008921  0.07857271  0.27231959    -0.27200
C253        C  0.82224015  0.07321736  0.26007108    -0.03300
C254        C  0.81672988  0.08170087  0.25055346     0.09000
C255        C  0.81131736  0.09229876  0.25779689     0.02700
H256        H  0.82555722  0.06296216  0.25839842     0.10400
H257        H  0.80455677  0.09993149  0.25396763     0.09500
N258        N  0.81395013  0.05556684  0.30542324    -0.34400
N259        N  0.80455025  0.05876156  0.31431036    -0.26500
C260        C  0.80121599  0.04759640  0.32131653    -0.01800
C261        C  0.80897334  0.03703959  0.31661364     0.06800
C262        C  0.81683677  0.04239312  0.30652416     0.04900
H263        H  0.79326920  0.04706763  0.32874672     0.10000
H264        H  0.82349356  0.03694395  0.29983568     0.08900
N265        N  0.71084731  0.09165473  0.19386906    -0.25500
N266        N  0.72322252  0.09466455  0.18995061    -0.33400
C267        C  0.72412813  0.10802262  0.18785757     0.02800
C268        C  0.71175421  0.11362711  0.19054607     0.08800
C269        C  0.70354676  0.10305909  0.19434000    -0.04300
H270        H  0.73334004  0.11333845  0.18545208     0.09500
H271        H  0.69330511  0.10369519  0.19796798     0.10700
Cu272      Cu  0.73917955  0.08137628  0.19026879     0.44200
Cu273      Cu  0.70493886  0.07268202  0.20051074     0.42000
Cu274      Cu  0.73329629  0.05158517  0.20935790     0.43900
N275        N  0.75453649  0.06914186  0.19698082    -0.32900
N276        N  0.75241392  0.05836372  0.20451028    -0.27200
C277        C  0.76419359  0.05431171  0.20978739    -0.03300
C278        C  0.77415535  0.06295457  0.20529736     0.09000
C279        C  0.76769412  0.07224440  0.19725102     0.02700
H280        H  0.76518179  0.04659570  0.21743061     0.10400
H281        H  0.77193371  0.08147747  0.19326091     0.09500
N282        N  0.71339099  0.04607612  0.21220906    -0.34400
N283        N  0.70291908  0.05348891  0.20867683    -0.26500
C284        C  0.69157811  0.04626991  0.21069973    -0.01800
C285        C  0.69520739  0.03383113  0.21583631     0.06800
C286        C  0.70903812  0.03404462  0.21662830     0.04900
H287        H  0.68155878  0.04960892  0.20807985     0.10000
H288        H  0.71553082  0.02578446  0.21949535     0.08900
N289        N  0.74029995  0.30678295  0.21346544    -0.34800
N290        N  0.74613188  0.30510671  0.18464856    -0.55400
N291        N  0.75795076  0.33199046  0.18568662    -0.34800
N292        N  0.75089779  0.33427462  0.21415848    -0.55400
C293        C  0.73353749  0.29532986  0.21029503     0.28700
C294        C  0.73630226  0.31062153  0.22593750     0.28700
C295        C  0.75797971  0.32986725  0.17221048     0.28700
C296        C  0.76047221  0.34525290  0.18773883     0.28700
C297        C  0.74203476  0.29225886  0.18675670     0.37400
C298        C  0.75161611  0.30548163  0.17216923     0.37400
C299        C  0.74884057  0.33247218  0.22752239     0.37400
C300        C  0.75814195  0.34577253  0.21281972     0.37400
C301        C  0.72527344  0.29174283  0.22098370    -0.20100
C302        C  0.72702190  0.30136476  0.23083874    -0.20100
C303        C  0.76064670  0.34191658  0.16562320    -0.20100
C304        C  0.76221757  0.35161802  0.17541359    -0.20100
C305        C  0.74476771  0.28446564  0.17547264    -0.21200
C306        C  0.75085426  0.29282388  0.16625636    -0.21200
C307        C  0.75457369  0.34302914  0.23469226    -0.21200
C308        C  0.76046864  0.35143713  0.22539532    -0.21200
C309        C  0.73514760  0.28763159  0.19835911    -0.16500
C310        C  0.74130587  0.32181239  0.23330945    -0.16500
C311        C  0.76215818  0.35157537  0.20040724    -0.16500
C312        C  0.75656683  0.31723580  0.16573289    -0.16500
H313        H  0.71873272  0.28302735  0.22167336     0.16400
H314        H  0.72206454  0.30147296  0.24054985     0.16400
H315        H  0.76153475  0.34352951  0.15487235     0.16400
H316        H  0.76454985  0.36213968  0.17365245     0.16400
H317        H  0.74251193  0.27388322  0.17397936     0.14700
H318        H  0.75417663  0.28993986  0.15627697     0.14700
H319        H  0.75447308  0.34455306  0.24549377     0.14700
H320        H  0.76579402  0.36070369  0.22764754     0.14700
H321        H  0.74824444  0.31089349  0.20808547     0.27900
H322        H  0.75789709  0.32457469  0.19304313     0.27900
N323        N  0.71738973  0.30239524  0.31599634    -0.34800
N324        N  0.70345519  0.29934375  0.34160777    -0.55400
N325        N  0.70588470  0.32848838  0.34593878    -0.34800
N326        N  0.71809360  0.33164425  0.31947077    -0.55400
C327        C  0.71492146  0.28897703  0.31591362     0.28700
C328        C  0.72016725  0.30616276  0.30317842     0.28700
C329        C  0.69780034  0.32533069  0.35646039     0.28700
C330        C  0.70732179  0.34206567  0.34568775     0.28700
C331        C  0.70632205  0.28619885  0.33933079     0.37400
C332        C  0.69808915  0.30008211  0.35411491     0.37400
C333        C  0.72424751  0.33076654  0.30734590     0.37400
C334        C  0.72036686  0.34425452  0.32418448     0.37400
C335        C  0.71634070  0.28403945  0.30292674    -0.20100
C336        C  0.71948861  0.29489890  0.29485658    -0.20100
C337        C  0.69410769  0.33711644  0.36304900    -0.20100
C338        C  0.70019090  0.34763769  0.35633064    -0.20100
C339        C  0.70235222  0.27847232  0.35026946    -0.21200
C340        C  0.69700022  0.28723039  0.35955900    -0.21200
C341        C  0.73020962  0.34301240  0.30416682    -0.21200
C342        C  0.72786162  0.35150871  0.31486963    -0.21200
C343        C  0.71205701  0.28100182  0.32735942    -0.16500
C344        C  0.72426498  0.31921261  0.29893983    -0.16500
C345        C  0.71527219  0.34953315  0.33645133    -0.16500
C346        C  0.69443832  0.31213607  0.36089471    -0.16500
H347        H  0.71516509  0.27369856  0.29961185     0.16400
H348        H  0.72137820  0.29446631  0.28412340     0.16400
H349        H  0.68790994  0.33804412  0.37196775     0.16400
H350        H  0.69945218  0.35819626  0.35900534     0.16400
H351        H  0.70314854  0.26764655  0.35141200     0.14700
H352        H  0.69309732  0.28446769  0.36936116     0.14700
H353        H  0.73577868  0.34552856  0.29513578     0.14700
H354        H  0.73115618  0.36189533  0.31561612     0.14700
H355        H  0.71876424  0.30818209  0.32457598     0.27900
H356        H  0.71123016  0.32174558  0.34011105     0.27900
N357        N  0.71435243  0.20256231  0.20964162    -0.34800
N358        N  0.71178555  0.17333349  0.20842150    -0.55400
N359        N  0.70301573  0.17515319  0.18032959    -0.34800
N360        N  0.70697940  0.20432092  0.18112511    -0.55400
C361        C  0.71980576  0.19917316  0.22168994     0.28700
C362        C  0.71778229  0.21554140  0.20709636     0.28700
C363        C  0.70473723  0.16165117  0.18140128     0.28700
C364        C  0.70175838  0.17802714  0.16705394     0.28700
C365        C  0.71420420  0.17459112  0.22176301     0.37400
C366        C  0.70895561  0.16018012  0.20621926     0.37400
C367        C  0.70822129  0.21765290  0.18379936     0.37400
C368        C  0.70203760  0.20325842  0.16845375     0.37400
C369        C  0.72654042  0.21022141  0.22700772    -0.20100
C370        C  0.72529831  0.22051997  0.21781099    -0.20100
C371        C  0.70407949  0.15583157  0.16870128    -0.20100
C372        C  0.70218839  0.16612353  0.15967540    -0.20100
C373        C  0.71295731  0.16215207  0.22804749    -0.21200
C374        C  0.70969830  0.15302296  0.21819478    -0.21200
C375        C  0.70407609  0.22510219  0.17272844    -0.21200
C376        C  0.70018826  0.21599649  0.16301856    -0.21200
C377        C  0.71859727  0.18651686  0.22819899    -0.16500
C378        C  0.71399027  0.22319886  0.19563884    -0.16500
C379        C  0.70022868  0.19101615  0.16131163    -0.16500
C380        C  0.70667004  0.15431711  0.19346142    -0.16500
H381        H  0.73186961  0.21079464  0.23650469     0.16400
H382        H  0.72947670  0.23055041  0.21892000     0.16400
H383        H  0.70495613  0.14525280  0.16615147     0.16400
H384        H  0.70137784  0.16493020  0.14886485     0.16400
H385        H  0.71453304  0.15981681  0.23858283     0.14700
H386        H  0.70820629  0.14230503  0.21965949     0.14700
H387        H  0.70410071  0.23596571  0.17165220     0.14700
H388        H  0.69663531  0.21846759  0.15301043     0.14700
H389        H  0.70760163  0.19679479  0.20413481     0.27900
H390        H  0.70179748  0.18186736  0.18822986     0.27900
N391        N  0.73640373  0.19664784  0.31304162    -0.34800
N392        N  0.74662163  0.16897412  0.31213671    -0.55400
N393        N  0.75347972  0.17073462  0.34086868    -0.34800
N394        N  0.74487180  0.19904750  0.34123172    -0.55400
C395        C  0.73464430  0.19399919  0.29978372     0.28700
C396        C  0.73406464  0.20995394  0.31497164     0.28700
C397        C  0.75911824  0.15865026  0.33794636     0.28700
C398        C  0.75680992  0.17397675  0.35370316     0.28700
C399        C  0.74165571  0.16964327  0.29945690     0.37400
C400        C  0.75155878  0.15638574  0.31380614     0.37400
C401        C  0.73966846  0.21156037  0.33962319     0.37400
C402        C  0.74781817  0.19767388  0.35448032     0.37400
C403        C  0.73084080  0.20577432  0.29324031    -0.20100
C404        C  0.73048897  0.21579551  0.30278279    -0.20100
C405        C  0.76591888  0.15400229  0.34924591    -0.20100
C406        C  0.76436818  0.16358884  0.35918787    -0.20100
C407        C  0.74345683  0.15737534  0.29299537    -0.21200
C408        C  0.74976813  0.14901697  0.30203214    -0.21200
C409        C  0.73978005  0.21834743  0.35183879    -0.21200
C410        C  0.74486799  0.20956898  0.36122749    -0.21200
C411        C  0.73620691  0.18132910  0.29332386    -0.16500
C412        C  0.73466366  0.21700339  0.32739628    -0.16500
C413        C  0.75320250  0.18596172  0.36068192    -0.16500
C414        C  0.75818238  0.15154638  0.32551807    -0.16500
H415        H  0.72859387  0.20708433  0.28265088     0.16400
H416        H  0.72790760  0.22622675  0.30090945     0.16400
H417        H  0.77140033  0.14463758  0.35026699     0.16400
H418        H  0.76853092  0.16305645  0.36925230     0.16400
H419        H  0.74072207  0.15477744  0.28275686     0.14700
H420        H  0.75275378  0.13870188  0.30010358     0.14700
H421        H  0.73637922  0.22851696  0.35383749     0.14700
H422        H  0.74620523  0.21172119  0.37183774     0.14700
H423        H  0.73801733  0.18956884  0.32050387     0.27900
H424        H  0.74690335  0.17604657  0.33481220     0.27900
N425        N  0.78923093  0.40857349  0.20596444    -0.25500
N426        N  0.79306349  0.40237165  0.21714559    -0.33400
C427        C  0.78874848  0.38954077  0.21691488     0.02800
C428        C  0.78181946  0.38747411  0.20511168     0.08800
C429        C  0.78225840  0.39968752  0.19833149    -0.04300
H430        H  0.79002836  0.38242366  0.22507782     0.09500
H431        H  0.77750827  0.40206408  0.18881754     0.10700
Cu432      Cu  0.80225043  0.41134932  0.23349312     0.44200
Cu433      Cu  0.79316388  0.42908152  0.20211211     0.42000
Cu434      Cu  0.81181530  0.44485001  0.22981459     0.43900
N435        N  0.80856472  0.42274361  0.24969361    -0.32900
N436        N  0.81208509  0.43550495  0.24833061    -0.27200
C437        C  0.81438074  0.44085405  0.26057949    -0.03300
C438        C  0.81231514  0.43084636  0.27002099     0.09000
C439        C  0.80855567  0.41952436  0.26284433     0.02700
H440        H  0.81677121  0.45133935  0.26247190     0.10400
H441        H  0.80542277  0.40988290  0.26688799     0.09500
N442        N  0.80756145  0.45417723  0.21180100    -0.34400
N443        N  0.80002382  0.44917502  0.20198945    -0.26500
C444        C  0.79718915  0.45925751  0.19325818    -0.01800
C445        C  0.80344105  0.47092538  0.19785428     0.06800
C446        C  0.80988505  0.46728461  0.20953209     0.04900
H447        H  0.79042123  0.45836329  0.18476363     0.10000
H448        H  0.81483425  0.47397896  0.21659535     0.08900
N449        N  0.73037608  0.40964358  0.35004165    -0.25500
N450        N  0.74239373  0.40391188  0.34991486    -0.33400
C451        C  0.74101247  0.39061069  0.34769951     0.02800
C452        C  0.72752165  0.38776134  0.34634487     0.08800
C453        C  0.72099573  0.40000436  0.34787130    -0.04300
H454        H  0.74929197  0.38363333  0.34656891     0.09500
H455        H  0.71030169  0.40183660  0.34706438     0.10700
Cu456      Cu  0.76046665  0.41423355  0.35043901     0.44200
Cu457      Cu  0.72765592  0.43051275  0.35231963     0.42000
Cu458      Cu  0.75918666  0.44972506  0.35080326     0.43900
N459        N  0.77672878  0.42605271  0.34506812    -0.32900
N460        N  0.77618484  0.43935201  0.34498905    -0.27200
C461        C  0.78657170  0.44418862  0.33777919    -0.03300
C462        C  0.79398421  0.43339308  0.33310478     0.09000
C463        C  0.78747507  0.42205465  0.33790592     0.02700
H464        H  0.78754279  0.45458947  0.33461309     0.10400
H465        H  0.78925145  0.41174569  0.33479858     0.09500
N466        N  0.74056132  0.45817693  0.35433731    -0.34400
N467        N  0.72901101  0.45150268  0.35476063    -0.26500
C468        C  0.71898080  0.46044990  0.35678997    -0.01800
C469        C  0.72462021  0.47320878  0.35766252     0.06800
C470        C  0.73823671  0.47139408  0.35605212     0.04900
H471        H  0.70841916  0.45787387  0.35742444     0.10000
H472        H  0.74592194  0.47914274  0.35591708     0.08900
N473        N  0.82299594  0.58831279  0.23718730    -0.25500
N474        N  0.83313834  0.58868056  0.24583100    -0.33400
C475        C  0.83603634  0.60155602  0.24887092     0.02800
C476        C  0.82736092  0.60970860  0.24182922     0.08800
C477        C  0.81917272  0.60108370  0.23452571    -0.04300
H478        H  0.84334691  0.60468562  0.25633325     0.09500
H479        H  0.81077213  0.60383787  0.22817333     0.10700
Cu480      Cu  0.84037740  0.57228565  0.25622065     0.44200
Cu481      Cu  0.81438201  0.57031610  0.23026434     0.42000
Cu482      Cu  0.82085983  0.54277944  0.25315724     0.43900
N483        N  0.83712400  0.55952077  0.27220274    -0.32900
N484        N  0.82923229  0.54883634  0.27125991    -0.27200
C485        C  0.82496959  0.54542957  0.28365591    -0.03300
C486        C  0.83040822  0.55445019  0.29279088     0.09000
C487        C  0.83807988  0.56320991  0.28519343     0.02700
H488        H  0.81692317  0.53832134  0.28559649     0.10400
H489        H  0.84206915  0.57281859  0.28852043     0.09500
N490        N  0.81226236  0.54026849  0.23433116    -0.34400
N491        N  0.80970796  0.55021190  0.22581967    -0.26500
C492        C  0.80500984  0.54487781  0.21419937    -0.01800
C493        C  0.80461881  0.53098553  0.21562858     0.06800
C494        C  0.80926629  0.52844307  0.22845039     0.04900
H495        H  0.80262782  0.55062148  0.20524844     0.10000
H496        H  0.81089557  0.51866437  0.23300012     0.08900
N497        N  0.71919021  0.59908564  0.34183207    -0.25500
N498        N  0.73060678  0.60462429  0.33768751    -0.33400
C499        C  0.72816159  0.61714814  0.33320038     0.02800
C500        C  0.71462567  0.61967016  0.33454440     0.08800
C501        C  0.70915048  0.60806387  0.34003665    -0.04300
H502        H  0.73570500  0.62385167  0.32906281     0.09500
H503        H  0.69867556  0.60619153  0.34234787     0.10700
Cu504      Cu  0.74933420  0.59548345  0.33782221     0.44200
Cu505      Cu  0.71785904  0.57940058  0.34933961     0.42000
Cu506      Cu  0.75090739  0.56564828  0.35666081     0.43900
N507        N  0.76708083  0.58482727  0.34014920    -0.32900
N508        N  0.76768780  0.57394263  0.34777334    -0.27200
C509        C  0.77981865  0.56817836  0.34636438    -0.03300
C510        C  0.78721510  0.57585758  0.33746480     0.09000
C511        C  0.77886157  0.58630856  0.33362540     0.02700
H512        H  0.78254882  0.55845846  0.35048208     0.10400
H513        H  0.78078970  0.59376150  0.32589610     0.09500
N514        N  0.73320784  0.55513356  0.35920526    -0.34400
N515        N  0.72109042  0.55968876  0.35612377    -0.26500
C516        C  0.71225753  0.54934889  0.35696924    -0.01800
C517        C  0.71926867  0.53791203  0.36080442     0.06800
C518        C  0.73245254  0.54193933  0.36207850     0.04900
H519        H  0.70173055  0.54995062  0.35427510     0.10000
H520        H  0.74105021  0.53555177  0.36402283     0.08900
N521        N  0.70226389  0.80402881  0.26993454    -0.34800
N522        N  0.67492878  0.80108983  0.26117157    -0.55400
N523        N  0.67504492  0.82943052  0.25244731    -0.34800
N524        N  0.70222438  0.83262882  0.26237944    -0.55400
C525        C  0.69932419  0.79177379  0.27519384     0.28700
C526        C  0.71362025  0.80842016  0.27598881     0.28700
C527        C  0.66177936  0.82652867  0.25144802     0.28700
C528        C  0.67641298  0.84299735  0.25146481     0.28700
C529        C  0.67765726  0.78792080  0.26346365     0.37400
C530        C  0.66301989  0.80149255  0.25466051     0.37400
C531        C  0.71544224  0.83104334  0.26515730     0.37400
C532        C  0.70103689  0.84452525  0.25581310     0.37400
C533        C  0.70889315  0.78836947  0.28476081    -0.20100
C534        C  0.71792169  0.79888326  0.28527013    -0.20100
C535        C  0.65461948  0.83840400  0.24969276    -0.20100
C536        C  0.66385924  0.84878713  0.24965927    -0.20100
C537        C  0.66736791  0.77989018  0.25851941    -0.21200
C538        C  0.65807507  0.78847972  0.25296243    -0.21200
C539        C  0.72265851  0.84213099  0.26063059    -0.21200
C540        C  0.71353150  0.85068263  0.25472205    -0.21200
C541        C  0.68884110  0.78320278  0.27082169    -0.16500
C542        C  0.72096781  0.82002786  0.27227376    -0.16500
C543        C  0.68875838  0.85014165  0.25131751    -0.16500
C544        C  0.65608895  0.81342855  0.25112045    -0.16500
H545        H  0.70945877  0.77915834  0.29058114     0.16400
H546        H  0.72682979  0.79931180  0.29153093     0.16400
H547        H  0.64386721  0.83946639  0.24835763     0.16400
H548        H  0.66160118  0.85938081  0.24834900     0.16400
H549        H  0.66653092  0.76901667  0.25906824     0.14700
H550        H  0.64868115  0.78546956  0.24833621     0.14700
H551        H  0.73336678  0.84390466  0.26154869     0.14700
H552        H  0.71583851  0.86032936  0.25016252     0.14700
H553        H  0.69798425  0.80825146  0.26137941     0.27900
H554        H  0.68279635  0.82244898  0.25219826     0.27900
N555        N  0.81295375  0.69756934  0.26434077    -0.34800
N556        N  0.81263667  0.66878428  0.25829878    -0.55400
N557        N  0.84059278  0.67072535  0.24902708    -0.34800
N558        N  0.84137656  0.69919813  0.25649879    -0.55400
C559        C  0.80103241  0.69407381  0.26996625     0.28700
C560        C  0.81602024  0.71013033  0.26873476     0.28700
C561        C  0.83860758  0.65729624  0.24752271     0.28700
C562        C  0.85379333  0.67329134  0.24676794     0.28700
C563        C  0.79962017  0.67015181  0.26200816     0.37400
C564        C  0.81403653  0.65608728  0.25353725     0.37400
C565        C  0.83912931  0.71242728  0.25888796     0.37400
C566        C  0.85377379  0.69827655  0.25095433     0.37400
C567        C  0.79633829  0.70468537  0.27777619    -0.20100
C568        C  0.80576154  0.71479036  0.27699309    -0.20100
C569        C  0.85071412  0.65125837  0.24405565    -0.20100
C570        C  0.86025693  0.66131333  0.24358067    -0.20100
C571        C  0.79273567  0.65818279  0.25978786    -0.21200
C572        C  0.80185088  0.64928244  0.25443262    -0.21200
C573        C  0.85025333  0.71995856  0.25503742    -0.21200
C574        C  0.85952382  0.71100760  0.25003343    -0.21200
C575        C  0.79400088  0.68179487  0.26799203    -0.16500
C576        C  0.82753795  0.71775824  0.26518364    -0.16500
C577        C  0.86011696  0.68614262  0.24690436    -0.16500
C578        C  0.82618271  0.65031789  0.24881898    -0.16500
H579        H  0.78708262  0.70512336  0.28350112     0.16400
H580        H  0.80512209  0.72447093  0.28199824     0.16400
H581        H  0.85251391  0.64069102  0.24200829     0.16400
H582        H  0.87076161  0.65993824  0.24107481     0.16400
H583        H  0.78226644  0.65604160  0.26190825     0.14700
H584        H  0.79974486  0.63894773  0.25159332     0.14700
H585        H  0.85159907  0.73076716  0.25584090     0.14700
H586        H  0.86937235  0.71359576  0.24615551     0.14700
H587        H  0.81798404  0.69233260  0.25686001     0.27900
H588        H  0.83317110  0.67782223  0.25048363     0.27900
N589        N  0.71106741  0.69979074  0.29390348    -0.34800
N590        N  0.71404730  0.67292254  0.30568755    -0.55400
N591        N  0.68673886  0.67429215  0.31601703    -0.34800
N592        N  0.68331869  0.70059526  0.30302306    -0.55400
C593        C  0.72285870  0.69599995  0.28823636     0.28700
C594        C  0.70679494  0.71098172  0.28736780     0.28700
C595        C  0.68969138  0.66127088  0.31885613     0.28700
C596        C  0.67323689  0.67567110  0.31694347     0.28700
C597        C  0.72685959  0.67499628  0.30159674     0.37400
C598        C  0.71422907  0.66187660  0.31367785     0.37400
C599        C  0.68427710  0.71335010  0.29825932     0.37400
C600        C  0.67131054  0.69967628  0.30936597     0.37400
C601        C  0.72621075  0.70501823  0.27807607    -0.20100
C602        C  0.71610790  0.71448660  0.27756321    -0.20100
C603        C  0.67795188  0.65432885  0.32186208    -0.20100
C604        C  0.66756350  0.66339371  0.32061398    -0.20100
C605        C  0.73519309  0.66513139  0.30689042    -0.21200
C606        C  0.72721337  0.65685299  0.31455850    -0.21200
C607        C  0.67273216  0.72050294  0.30144217    -0.21200
C608        C  0.66451091  0.71183853  0.30842005    -0.21200
C609        C  0.73103468  0.68510230  0.29246104    -0.16500
C610        C  0.69501916  0.71841598  0.29037870    -0.16500
C611        C  0.66594910  0.68779719  0.31516711    -0.16500
C612        C  0.70273553  0.65565307  0.31934823    -0.16500
H613        H  0.73508752  0.70488177  0.27176213     0.16400
H614        H  0.71567551  0.72298778  0.27073971     0.16400
H615        H  0.67696848  0.64382394  0.32466918     0.16400
H616        H  0.65703057  0.66119325  0.32231737     0.16400
H617        H  0.74589598  0.66393892  0.30529943     0.14700
H618        H  0.73058289  0.64802422  0.31998534     0.14700
H619        H  0.67036741  0.73082615  0.29882816     0.14700
H620        H  0.65459826  0.71419590  0.31225628     0.14700
H621        H  0.70694077  0.69585430  0.30265362     0.27900
H622        H  0.69363103  0.68208127  0.31491362     0.27900
N623        N  0.80710196  0.80137042  0.28675424    -0.34800
N624        N  0.83620072  0.80319866  0.28852225    -0.55400
N625        N  0.83457700  0.83173413  0.29564663    -0.34800
N626        N  0.80541987  0.82994452  0.29293589    -0.55400
C627        C  0.81060990  0.78936105  0.28134467     0.28700
C628        C  0.79424905  0.80385936  0.28302753     0.28700
C629        C  0.84786265  0.83077464  0.29279313     0.28700
C630        C  0.83137098  0.84499586  0.29549670     0.28700
C631        C  0.83500125  0.78968918  0.28708635     0.37400
C632        C  0.84935330  0.80570209  0.29088632     0.37400
C633        C  0.79216048  0.82696857  0.29266142     0.37400
C634        C  0.80643877  0.84273790  0.29749723     0.37400
C635        C  0.79975725  0.78398621  0.27436032    -0.20100
C636        C  0.78944048  0.79316316  0.27538342    -0.20100
C637        C  0.85329053  0.84360675  0.29147114    -0.20100
C638        C  0.84289283  0.85257774  0.29318084    -0.20100
C639        C  0.84743595  0.78357517  0.28863575    -0.21200
C640        C  0.85653178  0.79371600  0.29097381    -0.21200
C641        C  0.78472373  0.83786520  0.29725059    -0.21200
C642        C  0.79376940  0.84786125  0.30029237    -0.21200
C643        C  0.82320169  0.78297023  0.28287244    -0.16500
C644        C  0.78661607  0.81526995  0.28677444    -0.16500
C645        C  0.81835754  0.85045879  0.29730356    -0.16500
C646        C  0.85522886  0.81866564  0.29137207    -0.16500
H647        H  0.79933757  0.77448085  0.26900169     0.16400
H648        H  0.77952145  0.79206345  0.27101369     0.16400
H649        H  0.86363907  0.84624567  0.28931437     0.16400
H650        H  0.84370815  0.86344962  0.29257556     0.16400
H651        H  0.84980286  0.77296616  0.28768327     0.14700
H652        H  0.86726777  0.79243474  0.29224461     0.14700
H653        H  0.77388723  0.83871460  0.29786147     0.14700
H654        H  0.79127665  0.85792888  0.30368639     0.14700
H655        H  0.81271694  0.80687504  0.29367111     0.27900
H656        H  0.82822667  0.82385293  0.29831413     0.27900
N657        N  0.41711843  0.78698074  0.18466807    -0.25500
N658        N  0.41231054  0.77457071  0.18368047    -0.33400
C659        C  0.39885367  0.77501448  0.18315437     0.02800
C660        C  0.39499136  0.78829615  0.18385915     0.08800
C661        C  0.40673910  0.79571647  0.18483070    -0.04300
H662        H  0.39235519  0.76625500  0.18267814     0.09500
H663        H  0.40768828  0.80654628  0.18581914     0.10700
Cu664      Cu  0.42376415  0.75730605  0.18422824     0.44200
Cu665      Cu  0.43757744  0.79094212  0.18594951     0.42000
Cu666      Cu  0.45899597  0.76062335  0.18300217     0.43900
N667        N  0.43645601  0.74124734  0.18742236    -0.32900
N668        N  0.44968013  0.74236682  0.18693339    -0.27200
C669        C  0.45520279  0.73096964  0.19177122    -0.03300
C670        C  0.44488807  0.72230399  0.19533422     0.09000
C671        C  0.43316451  0.72915039  0.19253496     0.02700
H672        H  0.46581481  0.72965806  0.19379968     0.10400
H673        H  0.42305619  0.72613933  0.19526781     0.09500
N674        N  0.46601484  0.78025994  0.18417449    -0.34400
N675        N  0.45844800  0.79111082  0.18587317    -0.26500
C676        C  0.46647699  0.80178342  0.18836069    -0.01800
C677        C  0.47961671  0.79737497  0.18810487     0.06800
C678        C  0.47899901  0.78375812  0.18544834     0.04900
H679        H  0.46296114  0.81179994  0.19084908     0.10000
H680        H  0.48730379  0.77671840  0.18538721     0.08900
N681        N  0.41668017  0.71449937  0.31132312    -0.25500
N682        N  0.41119562  0.70880682  0.30054865    -0.33400
C683        C  0.39812902  0.71212185  0.29991318     0.02800
C684        C  0.39521585  0.72024727  0.31074562     0.08800
C685        C  0.40711819  0.72161017  0.31782886    -0.04300
H686        H  0.39133130  0.70905920  0.29195454     0.09500
H687        H  0.40876867  0.72746431  0.32688755     0.10700
Cu688      Cu  0.42129243  0.69784823  0.28602939     0.44200
Cu689      Cu  0.43703477  0.71284585  0.31639782     0.42000
Cu690      Cu  0.45641431  0.69820124  0.28916388     0.43900
N691        N  0.43373072  0.69149685  0.27063681    -0.32900
N692        N  0.44694597  0.69197249  0.27176878    -0.27200
C693        C  0.45250908  0.69005081  0.25959081    -0.03300
C694        C  0.44228346  0.68823282  0.25036170     0.09000
C695        C  0.43049272  0.68925754  0.25766808     0.02700
H696        H  0.46308593  0.69142652  0.25739363     0.10400
H697        H  0.42040469  0.68998437  0.25363789     0.09500
N698        N  0.46459358  0.70429501  0.30725525    -0.34400
N699        N  0.45778216  0.70956032  0.31742699    -0.26500
C700        C  0.46646332  0.71224162  0.32756842    -0.01800
C701        C  0.47920615  0.70842814  0.32341021     0.06800
C702        C  0.47764190  0.70349037  0.31055455     0.04900
H703        H  0.46372724  0.71672022  0.33712485     0.10000
H704        H  0.48544414  0.69965903  0.30399058     0.08900
N705        N  0.60345268  0.68819925  0.31654944    -0.25500
N706        N  0.60685409  0.68111234  0.30575589    -0.33400
C707        C  0.62016333  0.67905385  0.30576696     0.02800
C708        C  0.62549418  0.68511561  0.31700039     0.08800
C709        C  0.61471899  0.69089800  0.32368162    -0.04300
H710        H  0.62567392  0.67433925  0.29762933     0.09500
H711        H  0.61510716  0.69716176  0.33260681     0.10700
Cu712      Cu  0.59472902  0.67681477  0.28948523     0.44200
Cu713      Cu  0.58380835  0.69487460  0.32020464     0.42000
Cu714      Cu  0.56310894  0.69149388  0.28995949     0.43900
N715        N  0.58341125  0.67848647  0.27219390    -0.32900
N716        N  0.57142915  0.68415116  0.27241480    -0.27200
C717        C  0.56741734  0.68649983  0.25971958    -0.03300
C718        C  0.57739266  0.68211911  0.25109423     0.09000
C719        C  0.58745375  0.67717694  0.25932459     0.02700
H720        H  0.55871325  0.69246981  0.25705780     0.10400
H721        H  0.59754747  0.67444274  0.25630763     0.09500
N722        N  0.55612703  0.69840320  0.30825970    -0.34400
N723        N  0.56328818  0.69956421  0.31945264    -0.26500
C724        C  0.55500152  0.70346349  0.32952410    -0.01800
C725        C  0.54217438  0.70482260  0.32422828     0.06800
C726        C  0.54328007  0.70155730  0.31081702     0.04900
H727        H  0.55800677  0.70481105  0.33991819     0.10000
H728        H  0.53522239  0.70103026  0.30349909     0.08900
N729        N  0.59844192  0.79863662  0.23127129    -0.25500
N730        N  0.60459039  0.78688945  0.23252149    -0.33400
C731        C  0.61695228  0.78888518  0.23754869     0.02800
C732        C  0.61867878  0.80251078  0.23951958     0.08800
C733        C  0.60681921  0.80849270  0.23545676    -0.04300
H734        H  0.62431829  0.78102247  0.23911843     0.09500
H735        H  0.60459757  0.81916594  0.23513288     0.10700
Cu736      Cu  0.59692973  0.76873139  0.22592460     0.44200
Cu737      Cu  0.57940773  0.80041802  0.22293404     0.42000
Cu738      Cu  0.56732067  0.76928544  0.20629680     0.43900
N739        N  0.58903800  0.75166426  0.21707163    -0.32900
N740        N  0.57807114  0.75177130  0.20957117    -0.27200
C741        C  0.57474106  0.73898697  0.20639943    -0.03300
C742        C  0.58422304  0.73054748  0.21207362     0.09000
C743        C  0.59305926  0.73887917  0.21883728     0.02700
H744        H  0.56556812  0.73603281  0.20131015     0.10400
H745        H  0.60117760  0.73583507  0.22542686     0.09500
N746        N  0.55686956  0.78727654  0.20723919    -0.34400
N747        N  0.56091690  0.79839377  0.21346155    -0.26500
C748        C  0.55101642  0.80763541  0.21287566    -0.01800
C749        C  0.54039301  0.80198683  0.20591980     0.06800
C750        C  0.54437573  0.78915306  0.20252185     0.04900
H751        H  0.55144549  0.81755239  0.21741537     0.10000
H752        H  0.53847369  0.78155385  0.19736320     0.08900
N753        N  0.91676280  0.68920240  0.21900829    -0.25500
N754        N  0.90833125  0.69398124  0.20985591    -0.33400
C755        C  0.89581800  0.69411758  0.21489492     0.02800
C756        C  0.89625678  0.68920142  0.22782203     0.08800
C757        C  0.90965466  0.68612618  0.23021817    -0.04300
H758        H  0.88704945  0.69773615  0.20955342     0.09500
H759        H  0.91390321  0.68199568  0.23936228     0.10700
Cu760      Cu  0.91369574  0.70161351  0.19131817     0.44200
Cu761      Cu  0.93749735  0.68712684  0.21529010     0.42000
Cu762      Cu  0.94661628  0.69739179  0.18090079     0.43900
N763        N  0.92229903  0.71426191  0.17732071    -0.32900
N764        N  0.93489686  0.71277259  0.17345959    -0.27200
C765        C  0.93971643  0.72478023  0.16940920    -0.03300
C766        C  0.92971333  0.73431725  0.17095989     0.09000
C767        C  0.91874395  0.72721526  0.17574838     0.02700
H768        H  0.95033786  0.72690869  0.16826079     0.10400
H769        H  0.90999330  0.73161517  0.18051088     0.09500
N770        N  0.95958347  0.68811609  0.19416976    -0.34400
N771        N  0.95682172  0.68510198  0.20687885    -0.26500
C772        C  0.96831740  0.68110068  0.21293666    -0.01800
C773        C  0.97859248  0.68159370  0.20350378     0.06800
C774        C  0.97271450  0.68610226  0.19180666     0.04900
H775        H  0.96919525  0.67844422  0.22347204     0.10000
H776        H  0.97774072  0.68845549  0.18242100     0.08900
N777        N  0.91479316  0.80798184  0.27707570    -0.25500
N778        N  0.90931854  0.80803586  0.26490944    -0.33400
C779        C  0.89655429  0.81239126  0.26588277     0.02800
C780        C  0.89394710  0.81526087  0.27923288     0.08800
C781        C  0.90563650  0.81228758  0.28609152    -0.04300
H782        H  0.88953457  0.81288726  0.25756330     0.09500
H783        H  0.90723435  0.81272755  0.29686888     0.10700
Cu784      Cu  0.91882397  0.80120154  0.24754645     0.44200
Cu785      Cu  0.93417534  0.80141125  0.28115245     0.42000
Cu786      Cu  0.95279364  0.79018881  0.25201691     0.43900
N787        N  0.93022005  0.79283107  0.23212073    -0.32900
N788        N  0.94280981  0.78892192  0.23381986    -0.27200
C789        C  0.94717208  0.78291496  0.22249069    -0.03300
C790        C  0.93684219  0.78311509  0.21322170     0.09000
C791        C  0.92620672  0.78937164  0.21962689     0.02700
H792        H  0.95684742  0.77805565  0.22139793     0.10400
H793        H  0.91610031  0.79063394  0.21578775     0.09500
N794        N  0.96068427  0.79082160  0.27125376    -0.34400
N795        N  0.95396513  0.79487455  0.28201499    -0.26500
C796        C  0.96230564  0.79482903  0.29271690    -0.01800
C797        C  0.97475410  0.79043750  0.28839286     0.06800
C798        C  0.97341332  0.78804844  0.27478230     0.04900
H799        H  0.95967457  0.79835452  0.30269314     0.10000
H800        H  0.98126759  0.78516269  0.26780875     0.08900
N801        N  0.10336176  0.70187088  0.17919827    -0.25500
N802        N  0.10643464  0.71234409  0.17149446    -0.33400
C803        C  0.11982217  0.71385650  0.17107501     0.02800
C804        C  0.12554560  0.70403036  0.17893344     0.08800
C805        C  0.11490803  0.69652628  0.18397746    -0.04300
H806        H  0.12493267  0.72233755  0.16647986     0.09500
H807        H  0.11544648  0.68846941  0.19130493     0.10700
Cu808      Cu  0.09333639  0.72713456  0.16522098     0.44200
Cu809      Cu  0.08354100  0.69678343  0.18441208     0.42000
Cu810      Cu  0.06035560  0.72403032  0.17567334     0.43900
N811        N  0.08105538  0.74376577  0.16691021    -0.32900
N812        N  0.06846863  0.74255064  0.17091521    -0.27200
C813        C  0.06396066  0.75464414  0.17499475    -0.03300
C814        C  0.07425813  0.76390586  0.17355742     0.09000
C815        C  0.08495970  0.75667560  0.16840307     0.02700
H816        H  0.05470631  0.75612341  0.18053977     0.10400
H817        H  0.09530455  0.76004804  0.16781283     0.09500
N818        N  0.05459099  0.70599423  0.18423992    -0.34400
N819        N  0.06271672  0.69603651  0.18776837    -0.26500
C820        C  0.05528992  0.68630298  0.19377404    -0.01800
C821        C  0.04200155  0.69052630  0.19396063     0.06800
C822        C  0.04195910  0.70295760  0.18786299     0.04900
H823        H  0.05927222  0.67699094  0.19779755     0.10000
H824        H  0.03337848  0.70948109  0.18634798     0.08900
N825        N  0.10101265  0.80029693  0.29296153    -0.25500
N826        N  0.10773332  0.80321364  0.28181136    -0.33400
C827        C  0.12096496  0.80189614  0.28417626     0.02800
C828        C  0.12261942  0.79798946  0.29738275     0.08800
C829        C  0.10983766  0.79699061  0.30270012    -0.04300
H830        H  0.12873932  0.80295056  0.27661453     0.09500
H831        H  0.10710457  0.79353914  0.31267541     0.10700
Cu832      Cu  0.09903900  0.80698273  0.26322909     0.44200
Cu833      Cu  0.08017641  0.80001979  0.29431910     0.42000
Cu834      Cu  0.06364516  0.81049075  0.26356162     0.43900
N835        N  0.08773448  0.80783991  0.24572617    -0.32900
N836        N  0.07454229  0.80936510  0.24591804    -0.27200
C837        C  0.06966633  0.80750740  0.23342025    -0.03300
C838        C  0.08032689  0.80475074  0.22497145     0.09000
C839        C  0.09163742  0.80495211  0.23306498     0.02700
H840        H  0.05907801  0.80699139  0.23093600     0.10400
H841        H  0.10174450  0.80209556  0.23021608     0.09500
N842        N  0.05365367  0.80615493  0.28125319    -0.34400
N843        N  0.05946236  0.80173555  0.29239656    -0.26500
C844        C  0.04982836  0.79818624  0.30128730    -0.01800
C845        C  0.03749245  0.80061079  0.29535762     0.06800
C846        C  0.04026067  0.80560753  0.28272738     0.04900
H847        H  0.05167951  0.79370606  0.31105039     0.10000
H848        H  0.03308024  0.80795742  0.27487900     0.08900
N849        N  0.31072563  0.80423655  0.90141518    -0.25500
N850        N  0.31469824  0.79377080  0.89413742    -0.33400
C851        C  0.30740897  0.79317229  0.88275739     0.02800
C852        C  0.29842272  0.80370143  0.88284454     0.08800
C853        C  0.30075627  0.81058874  0.89474453    -0.04300
H854        H  0.30816619  0.78524786  0.87529176     0.09500
H855        H  0.29527728  0.81921231  0.89853041     0.10700
Cu856      Cu  0.32786817  0.77902176  0.90054015     0.44200
Cu857      Cu  0.31788162  0.80840954  0.92080701     0.42000
Cu858      Cu  0.33882879  0.78155777  0.93414204     0.43900
N859        N  0.33549165  0.76270441  0.91090973    -0.32900
N860        N  0.33933038  0.76359464  0.92361151    -0.27200
C861        C  0.34000613  0.75112716  0.92888658    -0.03300
C862        C  0.33646153  0.74197283  0.91899828     0.09000
C863        C  0.33367117  0.74964852  0.90773488     0.02700
H864        H  0.34108515  0.74905025  0.93953719     0.10400
H865        H  0.32874578  0.74618990  0.89863554     0.09500
N866        N  0.33356210  0.79858863  0.94489292    -0.34400
N867        N  0.32561153  0.80829204  0.94041454    -0.26500
C868        C  0.32245937  0.81646373  0.95083861    -0.01800
C869        C  0.32882918  0.81161350  0.96226607     0.06800
C870        C  0.33571871  0.80032545  0.95812483     0.04900
H871        H  0.31533091  0.82467806  0.95032875     0.10000
H872        H  0.34097981  0.79321417  0.96448614     0.08900
N873        N  0.22890228  0.67363628  0.90652468    -0.25500
N874        N  0.24153999  0.67121733  0.90309918    -0.33400
C875        C  0.24223235  0.66913679  0.88974315     0.02800
C876        C  0.22947772  0.67030780  0.88447232     0.08800
C877        C  0.22122499  0.67318152  0.89532169    -0.04300
H878        H  0.25150482  0.66798441  0.88415053     0.09500
H879        H  0.21063467  0.67564825  0.89498398     0.10700
Cu880      Cu  0.25797623  0.67435392  0.91545739     0.44200
Cu881      Cu  0.22317588  0.67955380  0.92589796     0.42000
Cu882      Cu  0.25099236  0.69587150  0.94309938     0.43900
N883        N  0.27285150  0.68487671  0.92552106    -0.32900
N884        N  0.27012748  0.69343465  0.93535152    -0.27200
C885        C  0.28134366  0.70034973  0.93848479    -0.03300
C886        C  0.29157810  0.69585614  0.93023906     0.09000
C887        C  0.28588077  0.68612313  0.92207847     0.02700
H888        H  0.28179580  0.70857522  0.94564623     0.10400
H889        H  0.29054778  0.68109446  0.91360887     0.09500
N890        N  0.23210507  0.69340870  0.95143320    -0.34400
N891        N  0.22199622  0.68698473  0.94556191    -0.26500
C892        C  0.21202114  0.68538332  0.95465097    -0.01800
C893        C  0.21612026  0.69118969  0.96666646     0.06800
C894        C  0.22885170  0.69612248  0.96427617     0.04900
H895        H  0.20284717  0.67976715  0.95286559     0.10000
H896        H  0.23565967  0.70048523  0.97159843     0.08900
N897        N  0.32687042  0.79072427  0.08926046    -0.25500
N898        N  0.33147237  0.77909469  0.09389329    -0.33400
C899        C  0.33027797  0.77882198  0.10734132     0.02800
C900        C  0.32459246  0.79074572  0.11145363     0.08800
C901        C  0.32256240  0.79817787  0.09981425    -0.04300
H902        H  0.33263585  0.77020180  0.11358943     0.09500
H903        H  0.31780252  0.80794662  0.09900384     0.10700
Cu904      Cu  0.33645395  0.76258874  0.08231603     0.44200
Cu905      Cu  0.32547530  0.79494362  0.06863585     0.42000
Cu906      Cu  0.32918712  0.76459857  0.04774907     0.43900
N907        N  0.33479262  0.74563519  0.07040811    -0.32900
N908        N  0.33175185  0.74633744  0.05748224    -0.27200
C909        C  0.32832992  0.73396887  0.05306890    -0.03300
C910        C  0.32930150  0.72510215  0.06376263     0.09000
C911        C  0.33335917  0.73283002  0.07460648     0.02700
H912        H  0.32396895  0.73190647  0.04328814     0.10400
H913        H  0.33360459  0.72973262  0.08505991     0.09500
N914        N  0.32621195  0.78382560  0.04020065    -0.34400
N915        N  0.32492736  0.79491544  0.04753909    -0.26500
C916        C  0.32356981  0.80554828  0.03915245    -0.01800
C917        C  0.32398958  0.80080104  0.02603890     0.06800
C918        C  0.32566757  0.78706287  0.02707593     0.04900
H919        H  0.32256596  0.81592818  0.04236264     0.10000
H920        H  0.32667319  0.77992772  0.01888131     0.08900
N921        N  0.21239072  0.69615705  0.09354142    -0.25500
N922        N  0.22422881  0.69703961  0.09959504    -0.33400
C923        C  0.22256750  0.70204623  0.11204098     0.02800
C924        C  0.20909012  0.70442580  0.11397355     0.08800
C925        C  0.20282207  0.70058673  0.10211617    -0.04300
H926        H  0.23062641  0.70382746  0.11916044     0.09500
H927        H  0.19218885  0.70106947  0.09984367     0.10700
Cu928      Cu  0.24241541  0.69151269  0.09122671     0.44200
Cu929      Cu  0.21026359  0.68951822  0.07367562     0.42000
Cu930      Cu  0.24141832  0.67547747  0.05962660     0.43900
N931        N  0.25960707  0.68509091  0.08149520    -0.32900
N932        N  0.25922451  0.67868756  0.06983508    -0.27200
C933        C  0.27180457  0.67758297  0.06498292    -0.03300
C934        C  0.28047617  0.68352565  0.07410152     0.09000
C935        C  0.27243378  0.68823607  0.08441825     0.02700
H936        H  0.27425705  0.67408633  0.05494959     0.10400
H937        H  0.27549823  0.69463541  0.09271369     0.09500
N938        N  0.22405251  0.67877678  0.04870250    -0.34400
N939        N  0.21283139  0.68413055  0.05348596    -0.26500
C940        C  0.20451783  0.68675169  0.04306237    -0.01800
C941        C  0.21088308  0.68280861  0.03130892     0.06800
C942        C  0.22318879  0.67785551  0.03523804     0.04900
H943        H  0.19494377  0.69184740  0.04392018     0.10000
H944        H  0.23131038  0.67465627  0.02872394     0.08900
N945        N  0.20899456  0.73473139  0.19878630    -0.34800
N946        N  0.18190760  0.72312810  0.19922290    -0.55400
N947        N  0.18444288  0.71652900  0.17079454    -0.34800
N948        N  0.21093260  0.72927244  0.16999262    -0.55400
C949        C  0.20491505  0.73870323  0.21118885     0.28700
C950        C  0.22036011  0.74169742  0.19580827     0.28700
C951        C  0.17119373  0.71401463  0.17268329     0.28700
C952        C  0.18660221  0.71697859  0.15733867     0.28700
C953        C  0.18321602  0.72582285  0.21251446     0.37400
C954        C  0.17039212  0.71598110  0.19775899     0.37400
C955        C  0.22364649  0.73365839  0.17216883     0.37400
C956        C  0.21076742  0.72378195  0.15751464     0.37400
C957        C  0.21400842  0.74806728  0.21627093    -0.20100
C958        C  0.22372598  0.74993902  0.20659781    -0.20100
C959        C  0.16488954  0.71281688  0.16023921    -0.20100
C960        C  0.17462440  0.71463958  0.15057177    -0.20100
C961        C  0.17239885  0.72043402  0.21953488    -0.21200
C962        C  0.16428821  0.71418756  0.21019079    -0.21200
C963        C  0.23152831  0.73117963  0.16091662    -0.21200
C964        C  0.22339316  0.72488355  0.15165728    -0.21200
C965        C  0.19348552  0.73388104  0.21827592    -0.16500
C966        C  0.22808566  0.74048224  0.18387304    -0.16500
C967        C  0.19923378  0.71849708  0.15102797    -0.16500
C968        C  0.16475169  0.71209174  0.18526375    -0.16500
H969        H  0.21370700  0.75306543  0.22596567     0.16400
H970        H  0.23230200  0.75663270  0.20743770     0.16400
H971        H  0.15438082  0.71070895  0.15828812     0.16400
H972        H  0.17307998  0.71419525  0.13978153     0.16400
H973        H  0.17043662  0.72112293  0.23024222     0.14700
H974        H  0.15483377  0.70916740  0.21227132     0.14700
H975        H  0.24203819  0.73367917  0.15950513     0.14700
H976        H  0.22640893  0.72164206  0.14169042     0.14700
H977        H  0.20496701  0.72685101  0.19322887     0.27900
H978        H  0.19184451  0.71628200  0.17816015     0.27900
N979        N  0.30885040  0.77402180  0.19924048    -0.34800
N980        N  0.33667962  0.78312666  0.19957336    -0.55400
N981        N  0.33430078  0.79158584  0.17131831    -0.34800
N982        N  0.30680974  0.78117245  0.17064282    -0.55400
C983        C  0.31247046  0.76984764  0.21173262     0.28700
C984        C  0.29684338  0.76824381  0.19628062     0.28700
C985        C  0.34780002  0.79241101  0.17299940     0.28700
C986        C  0.33187138  0.79200497  0.15789664     0.28700
C987        C  0.33540537  0.78029289  0.21284860     0.37400
C988        C  0.34895550  0.78877381  0.19794221     0.37400
C989        C  0.29407014  0.77674082  0.17257645     0.37400
C990        C  0.30732896  0.78636056  0.15803688     0.37400
C991        C  0.30247515  0.76154459  0.21689397    -0.20100
C992        C  0.29266241  0.76051553  0.20717559    -0.20100
C993        C  0.35396578  0.79377525  0.16052609    -0.20100
C994        C  0.34394954  0.79356234  0.15102864    -0.20100
C995        C  0.34697726  0.78412493  0.21967182    -0.21200
C996        C  0.35556923  0.78944421  0.21023190    -0.21200
C997        C  0.28648553  0.77904813  0.16106875    -0.21200
C998        C  0.29486761  0.78514065  0.15188406    -0.21200
C999        C  0.32433978  0.77353619  0.21879033    -0.16500
C1000       C  0.28931026  0.76999559  0.18424483    -0.16500
C1001       C  0.31913407  0.79104924  0.15156973    -0.16500
C1002       C  0.35479217  0.79218052  0.18541726    -0.16500
H1003       H  0.30226319  0.75667891  0.22665313     0.16400
H1004       H  0.28346151  0.75473007  0.20807903     0.16400
H1005       H  0.36461020  0.79474664  0.15843561     0.16400
H1006       H  0.34546903  0.79426851  0.14025266     0.16400
H1007       H  0.34912238  0.78297334  0.23030185     0.14700
H1008       H  0.36562344  0.79319169  0.21216308     0.14700
H1009       H  0.27603812  0.77645038  0.15938583     0.14700
H1010       H  0.29216890  0.78807303  0.14173370     0.14700
H1011       H  0.31371060  0.78128100  0.19355290     0.27900
H1012       H  0.32712522  0.79180605  0.17889542     0.27900
N1013       N  0.20501332  0.76277195  0.30120882    -0.34800
N1014       N  0.17742081  0.77143254  0.29774156    -0.55400
N1015       N  0.17659411  0.77981271  0.32596647    -0.34800
N1016       N  0.20473858  0.77298771  0.32892222    -0.55400
C1017       C  0.20339011  0.76013084  0.28792698     0.28700
C1018       C  0.21838371  0.76292661  0.30377637     0.28700
C1019       C  0.16505701  0.78553065  0.32161317     0.28700
C1020       C  0.17873394  0.78410315  0.33871039     0.28700
C1021       C  0.17877077  0.76462828  0.28600700     0.37400
C1022       C  0.16448433  0.77552346  0.29841064     0.37400
C1023       C  0.21746650  0.76827925  0.32844432     0.37400
C1024       C  0.20180196  0.77493653  0.34208018     0.37400
C1025       C  0.21587827  0.75816710  0.28202652    -0.20100
C1026       C  0.22533639  0.76004095  0.29198580    -0.20100
C1027       C  0.15971071  0.79345767  0.33183407    -0.20100
C1028       C  0.16827979  0.79242998  0.34268087    -0.20100
C1029       C  0.16665840  0.76455992  0.27907920    -0.21200
C1030       C  0.15764586  0.77154548  0.28687434    -0.21200
C1031       C  0.22279873  0.76761597  0.34134517    -0.21200
C1032       C  0.21282170  0.77168003  0.34999704    -0.21200
C1033       C  0.19096419  0.75928018  0.28101623    -0.16500
C1034       C  0.22447738  0.76483099  0.31655419    -0.16500
C1035       C  0.18956600  0.78022870  0.34701062    -0.16500
C1036       C  0.15880332  0.78315634  0.30902576    -0.16500
H1037       H  0.21798059  0.75579704  0.27158839     0.16400
H1038       H  0.23611417  0.75920870  0.29069818     0.16400
H1039       H  0.15045875  0.79918724  0.33160567     0.16400
H1040       H  0.16701090  0.79731518  0.35235575     0.16400
H1041       H  0.16458133  0.76015782  0.26931197     0.14700
H1042       H  0.14722542  0.77342084  0.28434447     0.14700
H1043       H  0.23277516  0.76436314  0.34424133     0.14700
H1044       H  0.21366729  0.77236244  0.36085115     0.14700
H1045       H  0.19739930  0.76308898  0.30830680     0.27900
H1046       H  0.18188883  0.77222664  0.32117738     0.27900
N1047       N  0.31090029  0.75358085  0.30426883    -0.34800
N1048       N  0.30915394  0.74271836  0.33165684    -0.55400
N1049       N  0.33739043  0.73535367  0.33046931    -0.34800
N1050       N  0.33876935  0.74503705  0.30263219    -0.55400
C1051       C  0.29747771  0.75434548  0.30638745     0.28700
C1052       C  0.31301641  0.75506818  0.29085423     0.28700
C1053       C  0.33367414  0.72871221  0.34180450     0.28700
C1054       C  0.34954818  0.73051656  0.32674761     0.28700
C1055       C  0.29693351  0.74861859  0.33096079     0.37400
C1056       C  0.31069555  0.73842705  0.34449927     0.37400
C1057       C  0.33782725  0.75121647  0.29051258     0.37400
C1058       C  0.35193702  0.74226370  0.30457438     0.37400
C1059       C  0.29100816  0.75663867  0.29420465    -0.20100
C1060       C  0.30079069  0.75707150  0.28442541    -0.20100
C1061       C  0.34370970  0.71971366  0.34543570    -0.20100
C1062       C  0.35372884  0.72087848  0.33596931    -0.20100
C1063       C  0.29063742  0.74800411  0.34342699    -0.21200
C1064       C  0.29933773  0.74151361  0.35198739    -0.21200
C1065       C  0.35044432  0.75223034  0.28465458    -0.21200
C1066       C  0.35938044  0.74660210  0.29356735    -0.21200
C1067       C  0.29089817  0.75348089  0.31901639    -0.16500
C1068       C  0.32567291  0.75520688  0.28429223    -0.16500
C1069       C  0.35720106  0.73484650  0.31553851    -0.16500
C1070       C  0.32176876  0.73090746  0.34928947    -0.16500
H1071       H  0.28032455  0.75785355  0.29250245     0.16400
H1072       H  0.29907151  0.75870754  0.27378098     0.16400
H1073       H  0.34384424  0.71302028  0.35404783     0.16400
H1074       H  0.36302865  0.71522271  0.33588030     0.16400
H1075       H  0.28069180  0.75159327  0.34601658     0.14700
H1076       H  0.29743656  0.73916278  0.36246777     0.14700
H1077       H  0.35293752  0.75644113  0.27490642     0.14700
H1078       H  0.37010092  0.74556536  0.29198488     0.14700
H1079       H  0.31821196  0.75339530  0.31171274     0.27900
H1080       H  0.33261043  0.74363932  0.32628100     0.27900
N1081       N  0.18890820  0.78625601  0.59781870    -0.25500
N1082       N  0.18632643  0.77517702  0.60481033    -0.33400
C1083       C  0.19038515  0.77701395  0.61761198     0.02800
C1084       C  0.19568585  0.78984123  0.61872387     0.08800
C1085       C  0.19466792  0.79544340  0.60602711    -0.04300
H1086       H  0.18950715  0.76956001  0.62552729     0.09500
H1087       H  0.19780285  0.80544296  0.60297740     0.10700
Cu1088     Cu  0.17728909  0.75800380  0.59684417     0.44200
Cu1089     Cu  0.18408612  0.78850404  0.57752937     0.42000
Cu1090     Cu  0.16183673  0.76251431  0.56477314     0.43900
N1091       N  0.16909011  0.74219327  0.58579987    -0.32900
N1092       N  0.16296915  0.74399748  0.57412754    -0.27200
C1093       C  0.16182044  0.73206314  0.56780596    -0.03300
C1094       C  0.16752677  0.72226060  0.57582990     0.09000
C1095       C  0.17197155  0.72902330  0.58719227     0.02700
H1096       H  0.15918451  0.73099662  0.55727476     0.10400
H1097       H  0.17867091  0.72506237  0.59481491     0.09500
N1098       N  0.16827487  0.77877838  0.55351366    -0.34400
N1099       N  0.17692288  0.78797969  0.55782514    -0.26500
C1100       C  0.18076902  0.79565792  0.54729366    -0.01800
C1101       C  0.17412671  0.79103737  0.53594675     0.06800
C1102       C  0.16637257  0.78033776  0.54021509     0.04900
H1103       H  0.18838427  0.80345993  0.54773576     0.10000
H1104       H  0.16057168  0.77353206  0.53395466     0.08900
N1105       N  0.28137602  0.68716334  0.58443237    -0.25500
N1106       N  0.27046941  0.67957940  0.58547129    -0.33400
C1107       C  0.26950023  0.67491047  0.59812343     0.02800
C1108       C  0.28028618  0.67979307  0.60535541     0.08800
C1109       C  0.28764878  0.68753779  0.59644967    -0.04300
H1110       H  0.26092477  0.66944507  0.60206183     0.09500
H1111       H  0.29628420  0.69378895  0.59875477     0.10700
Cu1112     Cu  0.25544107  0.67890680  0.57115380     0.44200
Cu1113     Cu  0.28583466  0.69820445  0.56731851     0.42000
Cu1114     Cu  0.25705863  0.70421017  0.54544363     0.43900
N1115       N  0.23894371  0.68483065  0.56005735    -0.32900
N1116       N  0.23930055  0.69467940  0.55109255    -0.27200
C1117       C  0.22660947  0.69790562  0.54766704    -0.03300
C1118       C  0.21795085  0.68960946  0.55477506     0.09000
C1119       C  0.22607678  0.68152496  0.56257864     0.02700
H1120       H  0.22388539  0.70637519  0.54136540     0.10400
H1121       H  0.22287818  0.67474487  0.57050280     0.09500
N1122       N  0.27675202  0.70928174  0.54055303    -0.34400
N1123       N  0.28722660  0.70694410  0.54843760    -0.26500
C1124       C  0.29860050  0.70900789  0.54138183    -0.01800
C1125       C  0.29509867  0.71287764  0.52850335     0.06800
C1126       C  0.28121423  0.71293124  0.52829390     0.04900
H1127       H  0.30858852  0.70661284  0.54498069     0.10000
H1128       H  0.27484800  0.71418722  0.51953978     0.08900
N1129       N  0.31566532  0.70305465  0.40568191    -0.25500
N1130       N  0.30683669  0.69605023  0.39852216    -0.33400
C1131       C  0.30728073  0.70015048  0.38563410     0.02800
C1132       C  0.31677241  0.71022173  0.38459984     0.08800
C1133       C  0.32194711  0.71186637  0.39744241    -0.04300
H1134       H  0.30065777  0.69654522  0.37775538     0.09500
H1135       H  0.32931179  0.71924505  0.40066668     0.10700
Cu1136     Cu  0.29274755  0.68294437  0.40651487     0.44200
Cu1137     Cu  0.31783728  0.70100010  0.42652985     0.42000
Cu1138     Cu  0.29613610  0.67515929  0.44093436     0.43900
N1139       N  0.27723503  0.67458035  0.41759152    -0.32900
N1140       N  0.27859770  0.67150491  0.43045776    -0.27200
C1141       C  0.26635003  0.66976958  0.43592841    -0.03300
C1142       C  0.25683480  0.67182647  0.42601947     0.09000
C1143       C  0.26406405  0.67487037  0.41451755     0.02700
H1144       H  0.26448251  0.66905156  0.44664851     0.10400
H1145       H  0.26005070  0.67885802  0.40520095     0.09500
N1146       N  0.30978536  0.68630846  0.45194644    -0.34400
N1147       N  0.31711710  0.69632395  0.44704189    -0.26500
C1148       C  0.32218061  0.70350468  0.45742817    -0.01800
C1149       C  0.31785915  0.69760204  0.46930131     0.06800
C1150       C  0.31005307  0.68678505  0.46545317     0.04900
H1151       H  0.32757141  0.71294077  0.45639923     0.10000
H1152       H  0.30378606  0.68064714  0.47193927     0.08900
N1153       N  0.18375080  0.77300011  0.40906384    -0.25500
N1154       N  0.18504829  0.76068483  0.40408210    -0.33400
C1155       C  0.18562932  0.76134453  0.39060479     0.02800
C1156       C  0.18466876  0.77465858  0.38689477     0.08800
C1157       C  0.18348813  0.78187064  0.39876265    -0.04300
H1158       H  0.18723102  0.75278146  0.38403249     0.09500
H1159       H  0.18295918  0.79271355  0.39987150     0.10700
Cu1160     Cu  0.18787176  0.74341974  0.41526374     0.44200
Cu1161     Cu  0.18351534  0.77695440  0.42967215     0.42000
Cu1162     Cu  0.19150058  0.74701959  0.45024103     0.43900
N1163       N  0.19407898  0.72773824  0.42734415    -0.32900
N1164       N  0.19572098  0.72906786  0.44047646    -0.27200
C1165       C  0.20171289  0.71790798  0.44531008    -0.03300
C1166       C  0.20381019  0.70918230  0.43464349     0.09000
C1167       C  0.19894494  0.71574056  0.42341448     0.02700
H1168       H  0.20519949  0.71670467  0.45556875     0.10400
H1169       H  0.19990325  0.71254662  0.41302937     0.09500
N1170       N  0.18715738  0.76596701  0.45785432    -0.34400
N1171       N  0.18426398  0.77682578  0.45064911    -0.26500
C1172       C  0.18193383  0.78721137  0.45911959    -0.01800
C1173       C  0.18350248  0.78255519  0.47214718     0.06800
C1174       C  0.18675985  0.76912927  0.47099415     0.04900
H1175       H  0.17922346  0.79730654  0.45601677     0.10000
H1176       H  0.18861542  0.76210132  0.47912029     0.08900
N1177       N  0.23153850  0.78852562  0.70116628    -0.34800
N1178       N  0.22631737  0.81759863  0.70148789    -0.55400
N1179       N  0.21697609  0.81620536  0.67346462    -0.34800
N1180       N  0.22279985  0.78726208  0.67293260    -0.55400
C1181       C  0.23621099  0.79151850  0.71364888     0.28700
C1182       C  0.23563313  0.77586120  0.69808614     0.28700
C1183       C  0.21535838  0.82958681  0.67561894     0.28700
C1184       C  0.21210043  0.81326095  0.66105578     0.28700
C1185       C  0.23062702  0.81623874  0.71434254     0.37400
C1186       C  0.22388208  0.83087385  0.69951990     0.37400
C1187       C  0.22682046  0.77432571  0.67433746     0.37400
C1188       C  0.21737464  0.78839553  0.66049377     0.37400
C1189       C  0.24287589  0.78038135  0.71881080    -0.20100
C1190       C  0.24258712  0.77056679  0.70899833    -0.20100
C1191       C  0.20947491  0.83530862  0.66430440    -0.20100
C1192       C  0.20734221  0.82502116  0.65517696    -0.20100
C1193       C  0.23087830  0.82875139  0.72060706    -0.21200
C1194       C  0.22670526  0.83798849  0.71123977    -0.21200
C1195       C  0.22397198  0.76716494  0.66266680    -0.21200
C1196       C  0.21793403  0.77601265  0.65396093    -0.21200
C1197       C  0.23501604  0.80408648  0.72042181    -0.16500
C1198       C  0.23336807  0.76887521  0.68577621    -0.16500
C1199       C  0.21203448  0.80036284  0.65477032    -0.16500
C1200       C  0.21909200  0.83681195  0.68742452    -0.16500
H1201       H  0.24776600  0.77951438  0.72851665     0.16400
H1202       H  0.24711245  0.76067965  0.70979778     0.16400
H1203       H  0.20691053  0.84580356  0.66278745     0.16400
H1204       H  0.20292175  0.82612601  0.64527123     0.16400
H1205       H  0.23400024  0.83106815  0.73079979     0.14700
H1206       H  0.22582432  0.84873579  0.71292696     0.14700
H1207       H  0.22602121  0.75664559  0.66060976     0.14700
H1208       H  0.21449965  0.77358108  0.64389773     0.14700
H1209       H  0.22521167  0.79447322  0.69547672     0.27900
H1210       H  0.22167018  0.80959011  0.67988806     0.27900
N1211       N  0.24068344  0.68985821  0.79757286    -0.34800
N1212       N  0.23210041  0.66186706  0.79439573    -0.55400
N1213       N  0.22313178  0.66132674  0.82218368    -0.34800
N1214       N  0.23305530  0.68877076  0.82575966    -0.55400
C1215       C  0.24692208  0.68678987  0.78582094     0.28700
C1216       C  0.24562799  0.70183166  0.80190525     0.28700
C1217       C  0.22101049  0.64833192  0.81862433     0.28700
C1218       C  0.22383259  0.66177615  0.83579575     0.28700
C1219       C  0.23571554  0.66463782  0.78156673     0.37400
C1220       C  0.22451222  0.65054422  0.79391467     0.37400
C1221       C  0.23529686  0.70219283  0.82482451     0.37400
C1222       C  0.22824717  0.68645162  0.83829157     0.37400
C1223       C  0.25579388  0.69709647  0.78252324    -0.20100
C1224       C  0.25489719  0.70663386  0.79261289    -0.20100
C1225       C  0.21994688  0.64043326  0.83009045    -0.20100
C1226       C  0.22187741  0.64889218  0.84093751    -0.20100
C1227       C  0.23057664  0.65491112  0.77291856    -0.21200
C1228       C  0.22337675  0.64605617  0.78072088    -0.21200
C1229       C  0.23183378  0.70844748  0.83684645    -0.21200
C1230       C  0.22751285  0.69845452  0.84541834    -0.21200
C1231       C  0.24415484  0.67540016  0.77760950    -0.16500
C1232       C  0.24177157  0.70862755  0.81386582    -0.16500
C1233       C  0.22547231  0.67355834  0.84369980    -0.16500
C1234       C  0.21962396  0.64355122  0.80530390    -0.16500
H1235       H  0.26212241  0.69777338  0.77367341     0.16400
H1236       H  0.26052117  0.71598296  0.79310472     0.16400
H1237       H  0.21812569  0.62967589  0.83057876     0.16400
H1238       H  0.22166300  0.64590749  0.85142505     0.16400
H1239       H  0.23185733  0.65426447  0.76210594     0.14700
H1240       H  0.21817694  0.63715519  0.77711381     0.14700
H1241       H  0.23276584  0.71903489  0.83935391     0.14700
H1242       H  0.22430501  0.69984222  0.85574985     0.14700
H1243       H  0.23252816  0.68481420  0.80172502     0.27900
H1244       H  0.22274610  0.66952007  0.81569893     0.27900
N1245       N  0.25373381  0.79511805  0.80573702    -0.34800
N1246       N  0.26282420  0.79434419  0.83338851    -0.55400
N1247       N  0.26493034  0.82389527  0.83360150    -0.34800
N1248       N  0.25683469  0.82443848  0.80541227    -0.55400
C1249       C  0.25522695  0.78165406  0.80744626     0.28700
C1250       C  0.25324691  0.79745737  0.79230955     0.28700
C1251       C  0.27200356  0.82084124  0.84486856     0.28700
C1252       C  0.26765287  0.83693913  0.83052992     0.28700
C1253       C  0.25904305  0.78127779  0.83222485     0.37400
C1254       C  0.26651564  0.79623186  0.84635454     0.37400
C1255       C  0.25181950  0.82264129  0.79285608     0.37400
C1256       C  0.25693841  0.83788725  0.80777713     0.37400
C1257       C  0.25552445  0.77534275  0.79497674    -0.20100
C1258       C  0.25434191  0.78529794  0.78543624    -0.20100
C1259       C  0.27889421  0.83221914  0.84924721    -0.20100
C1260       C  0.27611110  0.84235813  0.84026537    -0.20100
C1261       C  0.26028816  0.77482351  0.84454753    -0.21200
C1262       C  0.26513895  0.78427083  0.85347435    -0.21200
C1263       C  0.24871389  0.83503121  0.78719563    -0.21200
C1264       C  0.25194632  0.84468054  0.79664173    -0.21200
C1265       C  0.25580546  0.77483262  0.81993405    -0.16500
C1266       C  0.25101020  0.81009308  0.78606741    -0.16500
C1267       C  0.26282795  0.84413885  0.81919204    -0.16500
C1268       C  0.27230446  0.80820091  0.85151157    -0.16500
H1269       H  0.25651992  0.76466339  0.79294363     0.16400
H1270       H  0.25416447  0.78370922  0.77464589     0.16400
H1271       H  0.28534360  0.83314004  0.85798953     0.16400
H1272       H  0.28009869  0.85251415  0.84074651     0.16400
H1273       H  0.25837185  0.76430346  0.84675873     0.14700
H1274       H  0.26758394  0.78249251  0.86395320     0.14700
H1275       H  0.24480461  0.83693720  0.77719708     0.14700
H1276       H  0.25106941  0.85547961  0.79532248     0.14700
H1277       H  0.25163033  0.80205663  0.81327628     0.27900
H1278       H  0.25794581  0.81774734  0.82881850     0.27900
N1279       N  0.26223074  0.68578427  0.69416280    -0.34800
N1280       N  0.26759106  0.65728323  0.69232238    -0.55400
N1281       N  0.27510084  0.66066670  0.66408722    -0.34800
N1282       N  0.26874759  0.68910450  0.66586956    -0.55400
C1283       C  0.25776868  0.68149575  0.70629936     0.28700
C1284       C  0.25630240  0.69781345  0.69168452     0.28700
C1285       C  0.27296172  0.64718208  0.66448062     0.28700
C1286       C  0.27561649  0.66427472  0.65095143     0.28700
C1287       C  0.26674523  0.65817378  0.70589109     0.37400
C1288       C  0.27112182  0.64446733  0.68941370     0.37400
C1289       C  0.26612261  0.70209120  0.66900505     0.37400
C1290       C  0.27476713  0.68918019  0.65367440     0.37400
C1291       C  0.24902143  0.69094920  0.71168105    -0.20100
C1292       C  0.24800893  0.70119111  0.70241583    -0.20100
C1293       C  0.27240401  0.64216228  0.65141640    -0.20100
C1294       C  0.27417703  0.65292334  0.64289626    -0.20100
C1295       C  0.26978244  0.64582536  0.71167482    -0.21200
C1296       C  0.27239991  0.63708134  0.70120272    -0.21200
C1297       C  0.27045756  0.71050023  0.65872329    -0.21200
C1298       C  0.27602007  0.70231580  0.64902744    -0.21200
C1299       C  0.26182092  0.66955998  0.71288251    -0.16500
C1300       C  0.25892744  0.70627657  0.68051906    -0.16500
C1301       C  0.27746863  0.67750401  0.64602198    -0.16500
C1302       C  0.27207636  0.63916622  0.67624223    -0.16500
H1303       H  0.24385309  0.69049584  0.72127033     0.16400
H1304       H  0.24202161  0.71022046  0.70358144     0.16400
H1305       H  0.27093778  0.63179900  0.64829995     0.16400
H1306       H  0.27418721  0.65244964  0.63199742     0.16400
H1307       H  0.26959946  0.64325534  0.72227197     0.14700
H1308       H  0.27481834  0.62648224  0.70213359     0.14700
H1309       H  0.26949504  0.72135816  0.65816585     0.14700
H1310       H  0.28005284  0.70560972  0.63944346     0.14700
H1311       H  0.27006489  0.68149357  0.68873603     0.27900
H1312       H  0.27727757  0.66689320  0.67222680     0.27900
N1313       N  0.80241973  0.26935799  0.70576304    -0.34800
N1314       N  0.83189018  0.26890094  0.70733906    -0.55400
N1315       N  0.83334720  0.26648532  0.67795920    -0.34800
N1316       N  0.80384768  0.26701772  0.67633310    -0.55400
C1317       C  0.80404527  0.27230963  0.71902332     0.28700
C1318       C  0.78922856  0.27108151  0.70270921     0.28700
C1319       C  0.84641270  0.26405268  0.68106647     0.28700
C1320       C  0.83175358  0.26399862  0.66461897     0.28700
C1321       C  0.82926667  0.27066567  0.72059201     0.37400
C1322       C  0.84538351  0.26765340  0.70612759     0.37400
C1323       C  0.79030175  0.26760836  0.67759293     0.37400
C1324       C  0.80654546  0.26578319  0.66301854     0.37400
C1325       C  0.79163660  0.27553210  0.72454353    -0.20100
C1326       C  0.78233342  0.27476029  0.71430409    -0.20100
C1327       C  0.85328716  0.26049816  0.66943191    -0.20100
C1328       C  0.84410109  0.26054390  0.65908722    -0.20100
C1329       C  0.84122030  0.27077666  0.72781995    -0.21200
C1330       C  0.85138734  0.26882331  0.71869273    -0.21200
C1331       C  0.78436165  0.26666320  0.66497318    -0.21200
C1332       C  0.79461405  0.26554869  0.65577459    -0.21200
C1333       C  0.81633238  0.27228736  0.72637007    -0.16500
C1334       C  0.78314646  0.26961192  0.68980661    -0.16500
C1335       C  0.81952083  0.26441902  0.65723052    -0.16500
C1336       C  0.85238775  0.26468273  0.69405389    -0.16500
H1337       H  0.78950237  0.27835482  0.73486171     0.16400
H1338       H  0.77170314  0.27688517  0.71528085     0.16400
H1339       H  0.86383227  0.25797533  0.66848315     0.16400
H1340       H  0.84624728  0.25797051  0.64870761     0.16400
H1341       H  0.84251286  0.27202891  0.73857868     0.14700
H1342       H  0.86199437  0.26822093  0.72107456     0.14700
H1343       H  0.77373827  0.26689243  0.66259692     0.14700
H1344       H  0.79339484  0.26459429  0.64497636     0.14700
H1345       H  0.80971127  0.26555489  0.69938528     0.27900
H1346       H  0.82607742  0.27024947  0.68438215     0.27900
N1347       N  0.70074248  0.25061210  0.80552443    -0.34800
N1348       N  0.70375382  0.24225245  0.83369694    -0.55400
N1349       N  0.67763737  0.22941858  0.83288986    -0.34800
N1350       N  0.67418439  0.23883743  0.80507837    -0.55400
C1351       C  0.71140836  0.25827918  0.80920543     0.28700
C1352       C  0.69629290  0.25529734  0.79351130     0.28700
C1353       C  0.68052881  0.22832009  0.84618640     0.28700
C1354       C  0.66415075  0.22811382  0.83152460     0.28700
C1355       C  0.71610190  0.24751968  0.83148386     0.37400
C1356       C  0.70456501  0.23518067  0.84531863     0.37400
C1357       C  0.67528931  0.24167399  0.79178953     0.37400
C1358       C  0.66253856  0.23196927  0.80666103     0.37400
C1359       C  0.71391515  0.26782124  0.79928066    -0.20100
C1360       C  0.70442489  0.26589001  0.78934812    -0.20100
C1361       C  0.66880231  0.22592097  0.85334420    -0.20100
C1362       C  0.65844878  0.22590331  0.84411664    -0.20100
C1363       C  0.72477057  0.24387689  0.84180748    -0.21200
C1364       C  0.71748775  0.23599867  0.85052790    -0.21200
C1365       C  0.66429847  0.23651487  0.78487647    -0.21200
C1366       C  0.65617324  0.23046356  0.79431151    -0.21200
C1367       C  0.71942750  0.25635391  0.82083255    -0.16500
C1368       C  0.68532047  0.25002925  0.78607348    -0.16500
C1369       C  0.65691806  0.22828794  0.81921359    -0.16500
C1370       C  0.69351976  0.22912047  0.85192881    -0.16500
H1371       H  0.72185676  0.27530711  0.79912463     0.16400
H1372       H  0.70357367  0.27167911  0.78014423     0.16400
H1373       H  0.66779304  0.22449164  0.86411043     0.16400
H1374       H  0.64792316  0.22431849  0.84642743     0.16400
H1375       H  0.73522674  0.24670268  0.84300220     0.14700
H1376       H  0.72120765  0.23166547  0.85981374     0.14700
H1377       H  0.66212206  0.23742184  0.77422813     0.14700
H1378       H  0.64655471  0.22571399  0.79234946     0.14700
H1379       H  0.69756620  0.24182572  0.81023713     0.27900
H1380       H  0.68460881  0.22976017  0.82510610     0.27900
N1381       N  0.69538394  0.27352725  0.70148508    -0.34800
N1382       N  0.66616189  0.27782966  0.70275702    -0.55400
N1383       N  0.66637804  0.28737601  0.67490748    -0.34800
N1384       N  0.69588359  0.28460932  0.67429045    -0.55400
C1385       C  0.69318689  0.27095986  0.71470847     0.28700
C1386       C  0.70886740  0.27454340  0.69966912     0.28700
C1387       C  0.65342453  0.29015315  0.67813763     0.28700
C1388       C  0.66902543  0.29330779  0.66290848     0.28700
C1389       C  0.66791256  0.27167733  0.71480558     0.37400
C1390       C  0.65273345  0.27929800  0.70097109     0.37400
C1391       C  0.70911343  0.28154802  0.67541731     0.37400
C1392       C  0.69386790  0.28863542  0.66142513     0.37400
C1393       C  0.70546985  0.27002339  0.72130567    -0.20100
C1394       C  0.71532144  0.27225984  0.71184851    -0.20100
C1395       C  0.64766459  0.29763459  0.66782857    -0.20100
C1396       C  0.65746488  0.29957822  0.65822967    -0.20100
C1397       C  0.65550262  0.26923749  0.72071990    -0.21200
C1398       C  0.64591776  0.27408484  0.71199892    -0.21200
C1399       C  0.71558256  0.28388695  0.66327062    -0.21200
C1400       C  0.70596647  0.28835735  0.65443073    -0.21200
C1401       C  0.68049920  0.26903284  0.72099637    -0.16500
C1402       C  0.71560501  0.27716351  0.68734238    -0.16500
C1403       C  0.68148489  0.29314155  0.65594136    -0.16500
C1404       C  0.64653045  0.28597452  0.68995865    -0.16500
H1405       H  0.70720117  0.26794826  0.73186985     0.16400
H1406       H  0.72603899  0.27225904  0.71377239     0.16400
H1407       H  0.63744697  0.30133930  0.66725421     0.16400
H1408       H  0.65622857  0.30510604  0.64891002     0.16400
H1409       H  0.65355301  0.26462694  0.73041141     0.14700
H1410       H  0.63515649  0.27389253  0.71364945     0.14700
H1411       H  0.72615216  0.28258233  0.66101431     0.14700
H1412       H  0.70773908  0.29116323  0.64404131     0.14700
H1413       H  0.68817550  0.27335953  0.69397410     0.27900
H1414       H  0.67276829  0.28099305  0.68006047     0.27900
N1415       N  0.80075303  0.28500383  0.81271359    -0.34800
N1416       N  0.79905530  0.28999762  0.84181445    -0.55400
N1417       N  0.82797220  0.29300212  0.84289615    -0.34800
N1418       N  0.82967976  0.28700825  0.81393839    -0.55400
C1419       C  0.78786145  0.28129932  0.81509563     0.28700
C1420       C  0.80395992  0.28062870  0.80017525     0.28700
C1421       C  0.82502469  0.29233019  0.85620588     0.28700
C1422       C  0.84122036  0.29019285  0.84161578     0.28700
C1423       C  0.78578741  0.28930167  0.83897708     0.37400
C1424       C  0.80011014  0.29409102  0.85477625     0.37400
C1425       C  0.82846488  0.28585356  0.80041171     0.37400
C1426       C  0.84282350  0.28930970  0.81648250     0.37400
C1427       C  0.78277819  0.27470645  0.80382354    -0.20100
C1428       C  0.79289384  0.27434552  0.79441932    -0.20100
C1429       C  0.83660612  0.28938184  0.86343859    -0.20100
C1430       C  0.84678833  0.28801996  0.85425738    -0.20100
C1431       C  0.77834904  0.29302733  0.85020656    -0.21200
C1432       C  0.78743659  0.29609356  0.86021407    -0.21200
C1433       C  0.84092915  0.28735154  0.79432770    -0.21200
C1434       C  0.85004031  0.28949217  0.80451760    -0.21200
C1435       C  0.78031823  0.28411949  0.82687913    -0.16500
C1436       C  0.81646076  0.28240504  0.79360722    -0.16500
C1437       C  0.84859256  0.28982523  0.82945930    -0.16500
C1438       C  0.81226991  0.29449813  0.86210675    -0.16500
H1439       H  0.77277227  0.27061203  0.80244133     0.16400
H1440       H  0.79219191  0.26985623  0.78449726     0.16400
H1441       H  0.83765234  0.28816061  0.87422139     0.16400
H1442       H  0.85712784  0.28561427  0.85666211     0.16400
H1443       H  0.76750646  0.29318211  0.85118850     0.14700
H1444       H  0.78499687  0.29900627  0.87043900     0.14700
H1445       H  0.84327256  0.28660715  0.78370196     0.14700
H1446       H  0.86079146  0.29073783  0.80328631     0.14700
H1447       H  0.80655083  0.29126739  0.81875679     0.27900
H1448       H  0.82163884  0.29634421  0.83528050     0.27900
N1449       N  0.16355746  0.39989196  0.77622530    -0.25500
N1450       N  0.15835974  0.39504287  0.76492873    -0.33400
C1451       C  0.15837440  0.38152236  0.76540354     0.02800
C1452       C  0.16387519  0.37763843  0.77749989     0.08800
C1453       C  0.16707625  0.38945852  0.78418801    -0.04300
H1454       H  0.15556717  0.37501888  0.75709802     0.09500
H1455       H  0.17229048  0.39041248  0.79371335     0.10700
Cu1456     Cu  0.15451665  0.40618615  0.74783284     0.44200
Cu1457     Cu  0.16715807  0.42039593  0.77938474     0.42000
Cu1458     Cu  0.16405485  0.44038395  0.74855606     0.43900
N1459       N  0.15732851  0.41725140  0.73047713    -0.32900
N1460       N  0.16117855  0.43000015  0.73070170    -0.27200
C1461       C  0.16498518  0.43367817  0.71822395    -0.03300
C1462       C  0.16337210  0.42269682  0.70978905     0.09000
C1463       C  0.15858752  0.41243967  0.71787933     0.02700
H1464       H  0.16988935  0.44312680  0.71580437     0.10400
H1465       H  0.15757725  0.40191146  0.71516590     0.09500
N1466       N  0.16833276  0.44835811  0.76735162    -0.34400
N1467       N  0.16966136  0.44128690  0.77858897    -0.26500
C1468       C  0.17277578  0.44979684  0.78874823    -0.01800
C1469       C  0.17341972  0.46271438  0.78353135     0.06800
C1470       C  0.17053743  0.46144991  0.77002451     0.04900
H1471       H  0.17444200  0.44679637  0.79909458     0.10000
H1472       H  0.17012859  0.46945307  0.76262617     0.08900
N1473       N  0.27750932  0.38871622  0.68161405    -0.25500
N1474       N  0.26609319  0.38193862  0.68020802    -0.33400
C1475       C  0.26818015  0.36893756  0.68341366     0.02800
C1476       C  0.28150695  0.36744512  0.68692033     0.08800
C1477       C  0.28715866  0.38013458  0.68575403    -0.04300
H1478       H  0.26044925  0.36123683  0.68356762     0.09500
H1479       H  0.29739816  0.38300915  0.68811115     0.10700
Cu1480     Cu  0.24783890  0.39032775  0.67456166     0.44200
Cu1481     Cu  0.27941274  0.40942248  0.67834769     0.42000
Cu1482     Cu  0.25000931  0.42336267  0.66180434     0.43900
N1483       N  0.23101631  0.40107530  0.66853333    -0.32900
N1484       N  0.23193663  0.41331849  0.66339308    -0.27200
C1485       C  0.21957482  0.41869844  0.66247306    -0.03300
C1486       C  0.21043124  0.40933765  0.66718586     0.09000
C1487       C  0.21799971  0.39829893  0.67100193     0.02700
H1488       H  0.21758548  0.42915547  0.66008575     0.10400
H1489       H  0.21448616  0.38955140  0.67649979     0.09500
N1490       N  0.26695677  0.43434980  0.66652669    -0.34400
N1491       N  0.27748858  0.42972495  0.67322316    -0.26500
C1492       C  0.28538998  0.44026827  0.67669905    -0.01800
C1493       C  0.27945643  0.45190283  0.67181159     0.06800
C1494       C  0.26786660  0.44778526  0.66547615     0.04900
H1495       H  0.29428889  0.43957791  0.68293719     0.10000
H1496       H  0.26008821  0.45418293  0.66133768     0.08900
N1497       N  0.26087052  0.57801067  0.66623628    -0.25500
N1498       N  0.24967223  0.58375635  0.66192276    -0.33400
C1499       C  0.25106697  0.59721703  0.66257136     0.02800
C1500       C  0.26369531  0.60004918  0.66755851     0.08800
C1501       C  0.26970111  0.58770925  0.66977704    -0.04300
H1502       H  0.24311101  0.60436554  0.66053983     0.09500
H1503       H  0.27940204  0.58588935  0.67436334     0.10700
Cu1504     Cu  0.23183932  0.57351126  0.65874201     0.44200
Cu1505     Cu  0.26280345  0.55735859  0.66893641     0.42000
Cu1506     Cu  0.23134148  0.53866546  0.66824028     0.43900
N1507       N  0.21441389  0.56333845  0.66378841    -0.32900
N1508       N  0.21423170  0.55058273  0.66764622    -0.27200
C1509       C  0.20237212  0.54796012  0.67363777    -0.03300
C1510       C  0.19477665  0.55961554  0.67350815     0.09000
C1511       C  0.20270652  0.56915547  0.66722258     0.02700
H1512       H  0.20014510  0.53880089  0.67913644     0.10400
H1513       H  0.20085559  0.57990044  0.66681200     0.09500
N1514       N  0.25003601  0.52981309  0.67099409    -0.34400
N1515       N  0.26149758  0.53662152  0.67139873    -0.26500
C1516       C  0.27168247  0.52794654  0.67350236    -0.01800
C1517       C  0.26631543  0.51514609  0.67449628     0.06800
C1518       C  0.25261964  0.51663496  0.67283449     0.04900
H1519       H  0.28218844  0.53075362  0.67411419     0.10000
H1520       H  0.24508876  0.50873580  0.67286188     0.08900
N1521       N  0.19035164  0.58921102  0.79192607    -0.25500
N1522       N  0.18716473  0.59675815  0.78138805    -0.33400
C1523       C  0.19273271  0.60902865  0.78284990     0.02800
C1524       C  0.19969240  0.60923128  0.79483977     0.08800
C1525       C  0.19803261  0.59656861  0.80039215    -0.04300
H1526       H  0.19188498  0.61714924  0.77561874     0.09500
H1527       H  0.20220855  0.59290909  0.80976793     0.10700
Cu1528     Cu  0.17597922  0.59041184  0.76493678     0.44200
Cu1529     Cu  0.18473562  0.56905242  0.79406174     0.42000
Cu1530     Cu  0.16331393  0.55729800  0.76686778     0.43900
N1531       N  0.16645302  0.58115828  0.74883118    -0.32900
N1532       N  0.16147242  0.56883828  0.74971558    -0.27200
C1533       C  0.15854093  0.56430334  0.73729598    -0.03300
C1534       C  0.16182051  0.57425876  0.72815384     0.09000
C1535       C  0.16682795  0.58481139  0.73578293     0.02700
H1536       H  0.15596381  0.55394552  0.73498443     0.10400
H1537       H  0.17192234  0.59370976  0.73204047     0.09500
N1538       N  0.17055582  0.54507665  0.78200387    -0.34400
N1539       N  0.17857441  0.54905842  0.79188556    -0.26500
C1540       C  0.18254242  0.53811158  0.79891466    -0.01800
C1541       C  0.17667821  0.52686390  0.79307098     0.06800
C1542       C  0.16922246  0.53162330  0.78242227     0.04900
H1543       H  0.18955515  0.53829383  0.80725186     0.10000
H1544       H  0.16371417  0.52569205  0.77510158     0.08900
N1545       N  0.22043821  0.89913337  0.69607864    -0.25500
N1546       N  0.23304677  0.89675498  0.69249261    -0.33400
C1547       C  0.23419045  0.88382847  0.68858491     0.02800
C1548       C  0.22176636  0.87776269  0.68974622     0.08800
C1549       C  0.21325660  0.88766338  0.69459621    -0.04300
H1550       H  0.24353641  0.87904862  0.68571051     0.09500
H1551       H  0.20274099  0.88654394  0.69718279     0.10700
Cu1552     Cu  0.24888621  0.91015427  0.69488637     0.44200
Cu1553     Cu  0.21368111  0.91786666  0.70297913     0.42000
Cu1554     Cu  0.24085436  0.94147334  0.70986851     0.43900
N1555       N  0.26338381  0.92274694  0.70306591    -0.32900
N1556       N  0.26031012  0.93427847  0.70896782    -0.27200
C1557       C  0.27122355  0.93907119  0.71540290    -0.03300
C1558       C  0.28165370  0.93013047  0.71337585     0.09000
C1559       C  0.27635998  0.91986149  0.70558501     0.02700
H1560       H  0.27124460  0.94780448  0.72195065     0.10400
H1561       H  0.28119659  0.91044784  0.70297921     0.09500
N1562       N  0.22074624  0.94666472  0.70980413    -0.34400
N1563       N  0.21066629  0.93825253  0.70741151    -0.26500
C1564       C  0.19908428  0.94534950  0.70721028    -0.01800
C1565       C  0.20217902  0.95875399  0.70965924     0.06800
C1566       C  0.21592683  0.95921222  0.71120013     0.04900
H1567       H  0.18929518  0.94117065  0.70487058     0.10000
H1568       H  0.22207984  0.96811656  0.71264428     0.08900
N1569       N  0.28824119  0.90190698  0.81783435    -0.25500
N1570       N  0.29414301  0.89525520  0.80789929    -0.33400
C1571       C  0.28831240  0.88314677  0.80637420     0.02800
C1572       C  0.27826406  0.88192023  0.81578380     0.08800
C1573       C  0.27844915  0.89393443  0.82301588    -0.04300
H1574       H  0.29131552  0.87569702  0.79899510     0.09500
H1575       H  0.27207236  0.89661452  0.83143228     0.10700
Cu1576     Cu  0.30958451  0.90241021  0.79611125     0.44200
Cu1577     Cu  0.29425283  0.92161519  0.82322133     0.42000
Cu1578     Cu  0.32269265  0.93403296  0.80218132     0.43900
N1579       N  0.32080104  0.91229833  0.78181200    -0.32900
N1580       N  0.32544415  0.92459180  0.78385523    -0.27200
C1581       C  0.32776934  0.93045914  0.77184864    -0.03300
C1582       C  0.32445467  0.92132823  0.76181996     0.09000
C1583       C  0.32019078  0.90990911  0.76852336     0.02700
H1584       H  0.32950883  0.94115611  0.77052425     0.10400
H1585       H  0.31474457  0.90153349  0.76411331     0.09500
N1586       N  0.31387338  0.94465223  0.81771842    -0.34400
N1587       N  0.30318239  0.94088991  0.82477652    -0.26500
C1588       C  0.29859360  0.95175705  0.83160658    -0.01800
C1589       C  0.30689566  0.96264566  0.82871644     0.06800
C1590       C  0.31640293  0.95775069  0.81995286     0.04900
H1591       H  0.28937168  0.95195358  0.83739082     0.10000
H1592       H  0.32380518  0.96360794  0.81448497     0.08900
N1593       N  0.20118080  0.08444016  0.70237158    -0.25500
N1594       N  0.21297451  0.09031581  0.70023951    -0.33400
C1595       C  0.21193656  0.10356907  0.70283532     0.02800
C1596       C  0.19892814  0.10618719  0.70676263     0.08800
C1597       C  0.19232945  0.09390544  0.70640605    -0.04300
H1598       H  0.22024768  0.11063409  0.70258067     0.09500
H1599       H  0.18207313  0.09187984  0.70945469     0.10700
Cu1600     Cu  0.23074627  0.08040500  0.69589681     0.44200
Cu1601     Cu  0.19796233  0.06363595  0.70114179     0.42000
Cu1602     Cu  0.22861018  0.04507642  0.69371666     0.43900
N1603       N  0.24766472  0.06834864  0.69491179    -0.32900
N1604       N  0.24681024  0.05508562  0.69407124    -0.27200
C1605       C  0.25912186  0.04973983  0.69564975    -0.03300
C1606       C  0.26813531  0.06017893  0.69748771     0.09000
C1607       C  0.26057403  0.07184557  0.69705315     0.02700
H1608       H  0.26115928  0.03905835  0.69651815     0.10400
H1609       H  0.26399213  0.08198518  0.69923439     0.09500
N1610       N  0.21013411  0.03615645  0.69697537    -0.34400
N1611       N  0.19889265  0.04261303  0.69999851    -0.26500
C1612       C  0.18922317  0.03340874  0.70272534    -0.01800
C1613       C  0.19479125  0.02069863  0.70125383     0.06800
C1614       C  0.20797636  0.02282594  0.69764660     0.04900
H1615       H  0.17910314  0.03579634  0.70593320     0.10000
H1616       H  0.21563745  0.01523346  0.69614642     0.08900
N1617       N  0.31821158  0.08757072  0.79984000    -0.25500
N1618       N  0.32301397  0.09133852  0.78798091    -0.33400
C1619       C  0.32348802  0.10483952  0.78739691     0.02800
C1620       C  0.31880314  0.10987990  0.79941296     0.08800
C1621       C  0.31548204  0.09873721  0.80714288    -0.04300
H1622       H  0.32643767  0.11056624  0.77859370     0.09500
H1623       H  0.31099215  0.09873106  0.81707415     0.10700
Cu1624     Cu  0.32706792  0.07859863  0.77207786     0.44200
Cu1625     Cu  0.31491706  0.06733641  0.80483117     0.42000
Cu1626     Cu  0.32237082  0.04388064  0.77702001     0.43900
N1627       N  0.32648853  0.06518979  0.75621970    -0.32900
N1628       N  0.32466247  0.05212755  0.75801506    -0.27200
C1629       C  0.32114966  0.04649333  0.74619184    -0.03300
C1630       C  0.32072901  0.05653126  0.73653786     0.09000
C1631       C  0.32419007  0.06823980  0.74323793     0.02700
H1632       H  0.31727860  0.03633483  0.74515288     0.10400
H1633       H  0.32313065  0.07842001  0.73945794     0.09500
N1634       N  0.31640915  0.03804655  0.79614815    -0.34400
N1635       N  0.31339709  0.04632446  0.80618657    -0.26500
C1636       C  0.30941525  0.03890477  0.81687735    -0.01800
C1637       C  0.30997816  0.02543052  0.81328088     0.06800
C1638       C  0.31443811  0.02525678  0.80014765     0.04900
H1639       H  0.30636499  0.04301471  0.82650308     0.10000
H1640       H  0.31606200  0.01646934  0.79388544     0.08900
N1641       N  0.90871161  0.27358250  0.83268797    -0.25500
N1642       N  0.90222805  0.26192030  0.83233991    -0.33400
C1643       C  0.88895900  0.26424135  0.83282210     0.02800
C1644       C  0.88706157  0.27796015  0.83348363     0.08800
C1645       C  0.89970754  0.28366658  0.83339701    -0.04300
H1646       H  0.88127496  0.25655657  0.83181101     0.09500
H1647       H  0.90217861  0.29429396  0.83301050     0.10700
Cu1648     Cu  0.91106385  0.24349974  0.82857402     0.44200
Cu1649     Cu  0.92921288  0.27533204  0.83008084     0.42000
Cu1650     Cu  0.94505353  0.24478749  0.81745658     0.43900
N1651       N  0.92086290  0.22695903  0.82071648    -0.32900
N1652       N  0.93339933  0.22748426  0.81634238    -0.27200
C1653       C  0.93625168  0.21593276  0.80985694    -0.03300
C1654       C  0.92496947  0.20777684  0.81023244     0.09000
C1655       C  0.91537076  0.21509949  0.81709132     0.02700
H1656       H  0.94536926  0.21417426  0.80416939     0.10400
H1657       H  0.90481643  0.21261424  0.81813115     0.09500
N1658       N  0.95514553  0.26272356  0.82106074    -0.34400
N1659       N  0.94947454  0.27375427  0.82593848    -0.26500
C1660       C  0.95910423  0.28287178  0.82877915    -0.01800
C1661       C  0.97133600  0.27728093  0.82543703     0.06800
C1662       C  0.96852141  0.26454986  0.82060846     0.04900
H1663       H  0.95737557  0.29245156  0.83370787     0.10000
H1664       H  0.97570410  0.25681838  0.81791694     0.08900
N1665       N  0.90955193  0.23998668  0.70461192    -0.25500
N1666       N  0.90099183  0.23178046  0.71079671    -0.33400
C1667       C  0.88838355  0.23621795  0.70892682     0.02800
C1668       C  0.88887983  0.24773821  0.70124782     0.08800
C1669       C  0.90241373  0.24992764  0.69863371    -0.04300
H1670       H  0.87948380  0.23145059  0.71304190     0.09500
H1671       H  0.90675080  0.25815133  0.69292641     0.10700
Cu1672     Cu  0.90578369  0.21504406  0.72229144     0.44200
Cu1673     Cu  0.93062940  0.23733281  0.70475015     0.42000
Cu1674     Cu  0.93951560  0.20686802  0.72299854     0.43900
N1675       N  0.91292068  0.19978704  0.73455118    -0.32900
N1676       N  0.92576817  0.19655005  0.73449666    -0.27200
C1677       C  0.92839997  0.18855486  0.74507131    -0.03300
C1678       C  0.91662102  0.18665875  0.75218272     0.09000
C1679       C  0.90698399  0.19395249  0.74525277     0.02700
H1680       H  0.93844115  0.18605407  0.74845189     0.10400
H1681       H  0.89697401  0.19638873  0.74876594     0.09500
N1682       N  0.95331670  0.21937373  0.71398139    -0.34400
N1683       N  0.95060387  0.23062648  0.70735704    -0.26500
C1684       C  0.96241400  0.23618387  0.70335995    -0.01800
C1685       C  0.97279876  0.22791264  0.70778400     0.06800
C1686       C  0.96663996  0.21747234  0.71445002     0.04900
H1687       H  0.96336424  0.24552787  0.69781158     0.10000
H1688       H  0.97149893  0.20910988  0.71947114     0.08900
N1689       N  0.09663162  0.28348732  0.83083905    -0.25500
N1690       N  0.10498879  0.27336456  0.83308395    -0.33400
C1691       C  0.11696613  0.27628081  0.82754664     0.02800
C1692       C  0.11606830  0.28877264  0.82155259     0.08800
C1693       C  0.10308278  0.29310208  0.82376130    -0.04300
H1694       H  0.12535381  0.26936207  0.82701040     0.09500
H1695       H  0.09840216  0.30209659  0.81977032     0.10700
Cu1696     Cu  0.09934265  0.25484959  0.84089782     0.44200
Cu1697     Cu  0.07641665  0.28297145  0.83574132     0.42000
Cu1698     Cu  0.06469498  0.25108352  0.84921577     0.43900
N1699       N  0.09055282  0.23627567  0.84457471    -0.32900
N1700       N  0.07772223  0.23493463  0.84776402    -0.27200
C1701       C  0.07413659  0.22193959  0.84636706    -0.03300
C1702       C  0.08520613  0.21475518  0.84204890     0.09000
C1703       C  0.09544838  0.22414993  0.84100996     0.02700
H1704       H  0.06383234  0.21839477  0.84651048     0.10400
H1705       H  0.10509276  0.22266609  0.83617873     0.09500
N1706       N  0.05244816  0.26762341  0.84612587    -0.34400
N1707       N  0.05663248  0.27920164  0.84098370    -0.26500
C1708       C  0.04593299  0.28717283  0.83873829    -0.01800
C1709       C  0.03457125  0.28025701  0.84274347     0.06800
C1710       C  0.03899465  0.26791249  0.84729956     0.04900
H1711       H  0.04634551  0.29689718  0.83380916     0.10000
H1712       H  0.03284849  0.25943136  0.85037021     0.08900
N1713       N  0.09175319  0.18337837  0.72211003    -0.25500
N1714       N  0.09425982  0.17500722  0.73218596    -0.33400
C1715       C  0.10698407  0.17061269  0.73131206     0.02800
C1716       C  0.11289159  0.17644797  0.72021727     0.08800
C1717       C  0.10302558  0.18455525  0.71458277    -0.04300
H1718       H  0.11195115  0.16463574  0.73895131     0.09500
H1719       H  0.10423325  0.19150181  0.70626426     0.10700
Cu1720     Cu  0.08234129  0.17265813  0.74900931     0.44200
Cu1721     Cu  0.07362889  0.19414309  0.72049988     0.42000
Cu1722     Cu  0.05566732  0.19592796  0.75254284     0.43900
N1723       N  0.07384887  0.17703040  0.76743393    -0.32900
N1724       N  0.06415683  0.18601122  0.76882690    -0.27200
C1725       C  0.06246426  0.18864248  0.78200910    -0.03300
C1726       C  0.07153040  0.18092143  0.78918327     0.09000
C1727       C  0.07865587  0.17374305  0.77966494     0.02700
H1728       H  0.05598320  0.19645375  0.78596832     0.10400
H1729       H  0.08750181  0.16763915  0.78137819     0.09500
N1730       N  0.04864630  0.20431406  0.73475177    -0.34400
N1731       N  0.05489321  0.20362022  0.72298261    -0.26500
C1732       C  0.04703471  0.20947320  0.71354404    -0.01800
C1733       C  0.03543425  0.21407519  0.71977281     0.06800
C1734       C  0.03679449  0.21061293  0.73314876     0.04900
H1735       H  0.04944218  0.21004651  0.70292718     0.10000
H1736       H  0.02951798  0.21219361  0.74110153     0.08900
N1737       N  0.19661976  0.18745636  0.74729734    -0.34800
N1738       N  0.17040142  0.18910205  0.73418720    -0.55400
N1739       N  0.17398842  0.16220215  0.72320171    -0.34800
N1740       N  0.19975263  0.16002207  0.73753428    -0.55400
C1741       C  0.19200854  0.19912726  0.75262029     0.28700
C1742       C  0.20741236  0.18361855  0.75467284     0.28700
C1743       C  0.16069851  0.16396514  0.72069128     0.28700
C1744       C  0.17676465  0.14899075  0.72128764     0.28700
C1745       C  0.17155390  0.20205315  0.73825321     0.37400
C1746       C  0.15919040  0.18838808  0.72651920     0.37400
C1747       C  0.21198400  0.16160729  0.74334900     0.37400
C1748       C  0.20036025  0.14858130  0.73012606     0.37400
C1749       C  0.20008875  0.20285968  0.76341186    -0.20100
C1750       C  0.20979835  0.19308343  0.76470360    -0.20100
C1751       C  0.15505615  0.15175002  0.71681971    -0.20100
C1752       C  0.16520970  0.14233459  0.71708737    -0.20100
C1753       C  0.16104707  0.20963882  0.73306413    -0.21200
C1754       C  0.15316870  0.20095802  0.72570481    -0.21200
C1755       C  0.22029404  0.15095467  0.73987371    -0.21200
C1756       C  0.21296238  0.14273412  0.73148233    -0.21200
C1757       C  0.18112473  0.20682960  0.74763765    -0.16500
C1758       C  0.21564432  0.17227848  0.75210201    -0.16500
C1759       C  0.18950093  0.14284548  0.72284594    -0.16500
C1760       C  0.15361071  0.17633474  0.72139107    -0.16500
H1761       H  0.19915525  0.21175816  0.76966558     0.16400
H1762       H  0.21777366  0.19301801  0.77213034     0.16400
H1763       H  0.14471128  0.14981945  0.71399964     0.16400
H1764       H  0.16416091  0.13174875  0.71461429     0.16400
H1765       H  0.15902881  0.22023118  0.73474444     0.14700
H1766       H  0.14393476  0.20354476  0.72054438     0.14700
H1767       H  0.23056393  0.14925989  0.74306479     0.14700
H1768       H  0.21648512  0.13343010  0.72700830     0.14700
H1769       H  0.19351785  0.18322546  0.73826113     0.27900
H1770       H  0.18106158  0.16970773  0.72493062     0.27900
N1771       N  0.18913608  0.29122901  0.76959204    -0.34800
N1772       N  0.18748228  0.31998752  0.77395891    -0.55400
N1773       N  0.16190329  0.31613496  0.78782521    -0.34800
N1774       N  0.16287470  0.28754636  0.78215561    -0.55400
C1775       C  0.20013782  0.29538021  0.76270388     0.28700
C1776       C  0.18620301  0.27857196  0.76537940     0.28700
C1777       C  0.16139104  0.32954575  0.78542582     0.28700
C1778       C  0.14948633  0.31224354  0.79180309     0.28700
C1779       C  0.20044299  0.31946356  0.76986064     0.37400
C1780       C  0.18507492  0.33286473  0.77769432     0.37400
C1781       C  0.16571345  0.27452588  0.77940506     0.37400
C1782       C  0.15248484  0.28744455  0.79091539     0.37400
C1783       C  0.20442170  0.28514319  0.75420777    -0.20100
C1784       C  0.19558613  0.27458839  0.75581522    -0.20100
C1785       C  0.14845376  0.33419671  0.78795742    -0.20100
C1786       C  0.14098038  0.32327756  0.79212802    -0.20100
C1787       C  0.20629391  0.33212939  0.77089643    -0.21200
C1788       C  0.19651887  0.34064709  0.77575889    -0.21200
C1789       C  0.15685370  0.26609225  0.78617097    -0.21200
C1790       C  0.14855142  0.27428021  0.79359306    -0.21200
C1791       C  0.20666164  0.30798701  0.76415568    -0.16500
C1792       C  0.17587998  0.27017207  0.77051397    -0.16500
C1793       C  0.14582504  0.29907167  0.79561495    -0.16500
C1794       C  0.17244533  0.33783568  0.78192194    -0.16500
H1795       H  0.21298379  0.28528013  0.74747260     0.16400
H1796       H  0.19614789  0.26498953  0.75064597     0.16400
H1797       H  0.14481014  0.34444036  0.78711109     0.16400
H1798       H  0.13046628  0.32340802  0.79496313     0.16400
H1799       H  0.21642215  0.33500942  0.76809443     0.14700
H1800       H  0.19766567  0.35135794  0.77755669     0.14700
H1801       H  0.15645067  0.25518555  0.78583605     0.14700
H1802       H  0.14034826  0.27092747  0.79994350     0.14700
H1803       H  0.18483548  0.29618857  0.77771124     0.27900
H1804       H  0.17051527  0.31024990  0.78831220     0.27900
N1805       N  0.29014699  0.29315894  0.73759806    -0.34800
N1806       N  0.31721870  0.29205356  0.72586053    -0.55400
N1807       N  0.31223561  0.31742123  0.71221223    -0.34800
N1808       N  0.28471422  0.31769540  0.72252473    -0.55400
C1809       C  0.29346951  0.28026759  0.74065795     0.28700
C1810       C  0.27690131  0.29475914  0.74038117     0.28700
C1811       C  0.32467767  0.31457193  0.70750017     0.28700
C1812       C  0.30685849  0.32696303  0.70409273     0.28700
C1813       C  0.31774496  0.28098507  0.73381201     0.37400
C1814       C  0.33004895  0.29503816  0.72234791     0.37400
C1815       C  0.27358738  0.31763216  0.73036934     0.37400
C1816       C  0.28465898  0.32950948  0.71572741     0.37400
C1817       C  0.28221619  0.27370041  0.74576147    -0.20100
C1818       C  0.27181634  0.28285457  0.74567567    -0.20100
C1819       C  0.32733589  0.32249219  0.69629739    -0.20100
C1820       C  0.31604491  0.33022150  0.69406626    -0.20100
C1821       C  0.33095713  0.27670592  0.73507190    -0.21200
C1822       C  0.33875809  0.28569007  0.72795200    -0.21200
C1823       C  0.26633739  0.32940533  0.72841767    -0.21200
C1824       C  0.27329756  0.33688435  0.71910455    -0.21200
C1825       C  0.30647977  0.27444700  0.73965735    -0.16500
C1826       C  0.26932563  0.30670780  0.73848308    -0.16500
C1827       C  0.29439516  0.33356176  0.70613542    -0.16500
C1828       C  0.33393043  0.30558015  0.71351838    -0.16500
H1829       H  0.28156792  0.26340135  0.74931693     0.16400
H1830       H  0.26162943  0.28090710  0.74901183     0.16400
H1831       H  0.33647547  0.32269995  0.69037212     0.16400
H1832       H  0.31487231  0.33763830  0.68615537     0.16400
H1833       H  0.33461441  0.26809347  0.74066758     0.14700
H1834       H  0.34957661  0.28523456  0.72682487     0.14700
H1835       H  0.25689866  0.33223263  0.73305102     0.14700
H1836       H  0.27030805  0.34664587  0.71526947     0.14700
H1837       H  0.29676666  0.30078875  0.73495718     0.27900
H1838       H  0.30841454  0.31428721  0.72140539     0.27900
N1839       N  0.29872336  0.19135835  0.77070469    -0.34800
N1840       N  0.29874651  0.16626818  0.78626387    -0.55400
N1841       N  0.32732150  0.17054979  0.79263468    -0.34800
N1842       N  0.32721316  0.19568698  0.77707467    -0.55400
C1843       C  0.28542009  0.18831592  0.77022107     0.28700
C1844       C  0.30028938  0.20399565  0.76569783     0.28700
C1845       C  0.32584787  0.15773912  0.79717453     0.28700
C1846       C  0.34062907  0.17355184  0.79303277     0.28700
C1847       C  0.28577349  0.16595619  0.78215031     0.37400
C1848       C  0.30109757  0.15449602  0.79270889     0.37400
C1849       C  0.32506134  0.20714091  0.76998770     0.37400
C1850       C  0.34028056  0.19580747  0.78089406     0.37400
C1851       C  0.27852746  0.19899521  0.76442113    -0.20100
C1852       C  0.28785408  0.20884275  0.76160050    -0.20100
C1853       C  0.33833314  0.15278676  0.80101517    -0.20100
C1854       C  0.34760487  0.16274574  0.79847036    -0.20100
C1855       C  0.27975577  0.15402068  0.78627094    -0.21200
C1856       C  0.28944325  0.14676414  0.79290954    -0.21200
C1857       C  0.33690430  0.21452112  0.76917669    -0.21200
C1858       C  0.34650952  0.20737466  0.77606874    -0.21200
C1859       C  0.27920384  0.17621341  0.77472990    -0.16500
C1860       C  0.31249850  0.21143741  0.76475977    -0.16500
C1861       C  0.34682786  0.18559106  0.78843670    -0.16500
C1862       C  0.31375765  0.15008520  0.79754297    -0.16500
H1863       H  0.26782788  0.19972490  0.76254773     0.16400
H1864       H  0.28565647  0.21855014  0.75714013     0.16400
H1865       H  0.34061077  0.14290404  0.80503052     0.16400
H1866       H  0.35834049  0.16194736  0.80010029     0.16400
H1867       H  0.26950182  0.15077316  0.78451458     0.14700
H1868       H  0.28810773  0.13680539  0.79717740     0.14700
H1869       H  0.33845306  0.22413766  0.76425099     0.14700
H1870       H  0.35690382  0.21038082  0.77736382     0.14700
H1871       H  0.30636114  0.18486322  0.77346149     0.27900
H1872       H  0.31965857  0.17707595  0.79001119     0.27900
N1873       N  0.59411766  0.22889734  0.82091388    -0.25500
N1874       N  0.59786316  0.24109569  0.82488338    -0.33400
C1875       C  0.61132876  0.24168993  0.82549135     0.02800
C1876       C  0.61634905  0.22933624  0.82174781     0.08800
C1877       C  0.60524977  0.22139364  0.81886109    -0.04300
H1878       H  0.61704673  0.25062026  0.82809809     0.09500
H1879       H  0.60524677  0.21105510  0.81536380     0.10700
Cu1880     Cu  0.58514001  0.25721796  0.82795572     0.44200
Cu1881     Cu  0.57396550  0.22330195  0.81849243     0.42000
Cu1882     Cu  0.55057303  0.25119673  0.82465592     0.43900
N1883       N  0.57151393  0.27271954  0.82583643    -0.32900
N1884       N  0.55850133  0.27046812  0.82445170    -0.27200
C1885       C  0.55258757  0.28172532  0.81980456    -0.03300
C1886       C  0.56238124  0.29150772  0.81820895     0.09000
C1887       C  0.57425562  0.28546179  0.82211811     0.02700
H1888       H  0.54235548  0.28215139  0.81610772     0.10400
H1889       H  0.58430894  0.28936400  0.82054328     0.09500
N1890       N  0.54481515  0.23138807  0.82157952    -0.34400
N1891       N  0.55302609  0.22122960  0.81890891    -0.26500
C1892       C  0.54557968  0.21000256  0.81684061    -0.01800
C1893       C  0.53216469  0.21340534  0.81834527     0.06800
C1894       C  0.53206018  0.22695602  0.82131873     0.04900
H1895       H  0.54962322  0.20018331  0.81437715     0.10000
H1896       H  0.52332006  0.23323255  0.82296419     0.08900
N1897       N  0.58652455  0.30513125  0.69740832    -0.25500
N1898       N  0.59243847  0.30976588  0.70845860    -0.33400
C1899       C  0.60554980  0.30652324  0.70824950     0.02800
C1900       C  0.60814876  0.29949464  0.69658501     0.08800
C1901       C  0.59591570  0.29877363  0.68986500    -0.04300
H1902       H  0.61259285  0.30875858  0.71626625     0.09500
H1903       H  0.59392161  0.29372764  0.68040074     0.10700
Cu1904     Cu  0.58283731  0.31883105  0.72457562     0.44200
Cu1905     Cu  0.56565810  0.30694538  0.69378497     0.42000
Cu1906     Cu  0.54791163  0.32176856  0.72257175     0.43900
N1907       N  0.57128464  0.32371163  0.74118977    -0.32900
N1908       N  0.55807455  0.32470541  0.74042966    -0.27200
C1909       C  0.55294146  0.32540029  0.75294520    -0.03300
C1910       C  0.56348539  0.32491178  0.76198266     0.09000
C1911       C  0.57496812  0.32376867  0.75422889     0.02700
H1912       H  0.54231817  0.32495555  0.75528737     0.10400
H1913       H  0.58505335  0.32176094  0.75779495     0.09500
N1914       N  0.53862573  0.31545652  0.70509872    -0.34400
N1915       N  0.54462478  0.30981937  0.69459779    -0.26500
C1916       C  0.53500431  0.30599017  0.68570900    -0.01800
C1917       C  0.52254963  0.30945016  0.69102176     0.06800
C1918       C  0.52526822  0.31538787  0.70323657     0.04900
H1919       H  0.53690218  0.30075986  0.67633074     0.10000
H1920       H  0.51801580  0.31898264  0.71052892     0.08900
N1921       N  0.40578067  0.20162096  0.80463815    -0.25500
N1922       N  0.39876902  0.21295311  0.80517954    -0.33400
C1923       C  0.38594114  0.21046195  0.80185063     0.02800
C1924       C  0.38466576  0.19696756  0.79905594     0.08800
C1925       C  0.39738592  0.19152944  0.80089836    -0.04300
H1926       H  0.37814308  0.21803848  0.80127186     0.09500
H1927       H  0.40034629  0.18113054  0.79947287     0.10700
Cu1928     Cu  0.40624528  0.23190136  0.80921831     0.44200
Cu1929     Cu  0.42655624  0.20099973  0.80859823     0.42000
Cu1930     Cu  0.44042505  0.23477600  0.81600467     0.43900
N1931       N  0.41554482  0.25043063  0.81042550    -0.32900
N1932       N  0.42851155  0.25151608  0.81303748    -0.27200
C1933       C  0.43234173  0.26441002  0.81133610    -0.03300
C1934       C  0.42118715  0.27173695  0.80752783     0.09000
C1935       C  0.41070119  0.26259766  0.80695811     0.02700
H1936       H  0.44263520  0.26794936  0.81180704     0.10400
H1937       H  0.40060573  0.26441764  0.80331790     0.09500
N1938       N  0.45155095  0.21723292  0.81555508    -0.34400
N1939       N  0.44693110  0.20501566  0.81268483    -0.26500
C1940       C  0.45745542  0.19640914  0.81232553    -0.01800
C1941       C  0.46905554  0.20366762  0.81511699     0.06800
C1942       C  0.46494415  0.21674565  0.81708742     0.04900
H1943       H  0.45674771  0.18579781  0.80987098     0.10000
H1944       H  0.47128055  0.22541982  0.81904943     0.08900
N1945       N  0.39610545  0.31639142  0.70906542    -0.25500
N1946       N  0.39226334  0.32381484  0.71947611    -0.33400
C1947       C  0.37884966  0.32302668  0.72085925     0.02800
C1948       C  0.37387522  0.31475119  0.71089887     0.08800
C1949       C  0.38503011  0.31066402  0.70355040    -0.04300
H1950       H  0.37322293  0.32755397  0.72902292     0.09500
H1951       H  0.38514783  0.30365948  0.69518789     0.10700
Cu1952     Cu  0.40496442  0.33247459  0.73346954     0.44200
Cu1953     Cu  0.41651394  0.31368562  0.70383388     0.42000
Cu1954     Cu  0.43921452  0.32643941  0.73006821     0.43900
N1955       N  0.41770405  0.33272705  0.74983345    -0.32900
N1956       N  0.43065296  0.33014673  0.74859449    -0.27200
C1957       C  0.43548637  0.32605589  0.76055576    -0.03300
C1958       C  0.42502951  0.32597447  0.76972679     0.09000
C1959       C  0.41393732  0.33035949  0.76261373     0.02700
H1960       H  0.44516898  0.32125778  0.76185195     0.10400
H1961       H  0.40356156  0.32947639  0.76580048     0.09500
N1962       N  0.44556534  0.31845462  0.71197962    -0.34400
N1963       N  0.43770739  0.31347486  0.70239896    -0.26500
C1964       C  0.44564792  0.30859043  0.69244812    -0.01800
C1965       C  0.45897664  0.31066494  0.69612434     0.06800
C1966       C  0.45849521  0.31689367  0.70848491     0.04900
H1967       H  0.44200848  0.30386265  0.68331582     0.10000
H1968       H  0.46696507  0.31996003  0.71462710     0.08900
C1969       C  0.42426351  0.31701054  0.78104815    -0.16700
C1970       C  0.42321389  0.30787985  0.78898088     0.07300
C1971       C  0.42196825  0.29598793  0.79667111     0.09200
C1972       C  0.42127987  0.28517508  0.80215928    -0.17600
C1973       C  0.50915827  0.30669817  0.68606254    -0.16700
C1974       C  0.49711002  0.30562490  0.68463202     0.07300
C1975       C  0.48287759  0.30580953  0.68579948     0.09200
C1976       C  0.47126502  0.30726726  0.68915352    -0.17600
C1977       C  0.52033571  0.20515552  0.81674967    -0.16700
C1978       C  0.50905309  0.20072091  0.81581027     0.07300
C1979       C  0.49499681  0.19854660  0.81516117     0.09200
C1980       C  0.48287917  0.19935350  0.81496174    -0.17600
C1981       C  0.56150912  0.30268212  0.80906413    -0.16700
C1982       C  0.56136781  0.31044847  0.79973598     0.07300
C1983       C  0.56176751  0.31750993  0.78740987     0.09200
C1984       C  0.56244650  0.32181784  0.77607976    -0.17600
C1985       C  0.36098898  0.18758457  0.79163346    -0.11500
C1986       C  0.37233843  0.19060510  0.79481848    -0.13100
C1987       C  0.34819993  0.30758915  0.71075719    -0.11500
C1988       C  0.36005420  0.31030696  0.70986216    -0.13100
C1989       C  0.30835890  0.26084836  0.74491735    -0.16700
C1990       C  0.30969667  0.24946524  0.74912069     0.07300
C1991       C  0.31101038  0.23612857  0.75414429     0.09200
C1992       C  0.31186612  0.22484314  0.75872301    -0.17600
C1993       C  0.25600428  0.30750150  0.74451873    -0.16700
C1994       C  0.24482160  0.30836962  0.74922691     0.07300
C1995       C  0.23160669  0.30916849  0.75449954     0.09200
C1996       C  0.22026691  0.30919374  0.75889762    -0.17600
C1997       C  0.22878782  0.17182045  0.75857617    -0.16700
C1998       C  0.23998334  0.17208217  0.76335107     0.07300
C1999       C  0.25338935  0.17302371  0.76813918     0.09200
C2000       C  0.26502391  0.17428023  0.77150116    -0.17600
C2001       C  0.17930621  0.22029254  0.75297376    -0.16700
C2002       C  0.17781941  0.23150468  0.75738343     0.07300
C2003       C  0.17643049  0.24471898  0.76238701     0.09200
C2004       C  0.17582687  0.25618259  0.76634123    -0.17600
C2005       C  0.12717601  0.17657707  0.71771655    -0.11500
C2006       C  0.13933064  0.17640979  0.71815858    -0.13100
C2007       C  0.07542769  0.18316378  0.80293134    -0.16700
C2008       C  0.07880013  0.18707063  0.81391889     0.07300
C2009       C  0.08228352  0.19424597  0.82567713     0.09200
C2010       C  0.08432653  0.20259980  0.83424897    -0.17600
C2011       C  0.12571376  0.29435558  0.81238746    -0.11500
C2012       C  0.13445543  0.29729972  0.80452397    -0.13100
C2013       C  0.02360666  0.21999429  0.71372567    -0.16700
C2014       C  0.01279395  0.22425249  0.71008449     0.07300
C2015       C  0.99926979  0.22796152  0.70738002     0.09200
C2016       C  0.98720316  0.22935413  0.70656314    -0.17600
C2017       C  0.98438456  0.28212706  0.82918519    -0.16700
C2018       C  0.99572711  0.28443868  0.83271568     0.07300
C2019       C  0.00926157  0.28500105  0.83681194     0.09200
C2020       C  0.02088741  0.28371266  0.83988598    -0.17600
C2021       C  0.92224306  0.19690149  0.80109779    -0.16700
C2022       C  0.91982789  0.18990033  0.79148724     0.07300
C2023       C  0.91741067  0.18498071  0.77840338     0.09200
C2024       C  0.91628773  0.18400344  0.76637321    -0.17600
C2025       C  0.31486290  0.13597863  0.80134096    -0.11500
C2026       C  0.31636621  0.12392381  0.80201230    -0.13100
C2027       C  0.28164879  0.05893137  0.70243816    -0.16700
C2028       C  0.29238156  0.05777290  0.70795346     0.07300
C2029       C  0.30394703  0.05661284  0.71609830     0.09200
C2030       C  0.31256746  0.05614101  0.72461390    -0.17600
C2031       C  0.19147490  0.12960277  0.71694481    -0.11500
C2032       C  0.19414032  0.11875714  0.71212838    -0.13100
C2033       C  0.30446116  0.97681592  0.83080348    -0.16700
C2034       C  0.30402203  0.98895973  0.82990256     0.07300
C2035       C  0.30500771  0.00273163  0.82624800     0.09200
C2036       C  0.30683757  0.01369793  0.82126042    -0.17600
C2037       C  0.19365791  0.97043882  0.70881785    -0.16700
C2038       C  0.18922703  0.98171418  0.70778449     0.07300
C2039       C  0.18748054  0.99575729  0.70608327     0.09200
C2040       C  0.18909203  0.00766395  0.70412864    -0.17600
C2041       C  0.29400464  0.92969887  0.72088643    -0.16700
C2042       C  0.30349150  0.92880141  0.72839689     0.07300
C2043       C  0.31319723  0.92705601  0.73862329     0.09200
C2044       C  0.31970477  0.92485231  0.74862409    -0.17600
C2045       C  0.16473328  0.57193008  0.71417448    -0.16700
C2046       C  0.16907325  0.56919152  0.70317436     0.07300
C2047       C  0.17619197  0.56557418  0.69142320     0.09200
C2048       C  0.18387293  0.56259196  0.68251897    -0.17600
C2049       C  0.28252089  0.46573472  0.67482228    -0.16700
C2050       C  0.28193465  0.47778852  0.67625514     0.07300
C2051       C  0.27828722  0.49153074  0.67665016     0.09200
C2052       C  0.27344786  0.50265262  0.67605945    -0.17600
C2053       C  0.28754947  0.35551782  0.69249880    -0.11500
C2054       C  0.29136761  0.34544875  0.69815192    -0.13100
C2055       C  0.17630248  0.47518824  0.79036836    -0.16700
C2056       C  0.17808861  0.48661612  0.79416487     0.07300
C2057       C  0.17910274  0.50067438  0.79630646     0.09200
C2058       C  0.17874976  0.51283284  0.79605680    -0.17600
C2059       C  0.16985337  0.42084879  0.69700030    -0.16700
C2060       C  0.17695579  0.41853533  0.68744863     0.07300
C2061       C  0.18710744  0.41526018  0.67809829     0.09200
C2062       C  0.19716979  0.41237814  0.67199923    -0.17600
C2063       C  0.17036072  0.35229688  0.78196724    -0.11500
C2064       C  0.16769363  0.36410014  0.78086585    -0.13100
C2065       C  0.86295822  0.28808554  0.83053155    -0.11500
C2066       C  0.87442305  0.28458960  0.83197666    -0.13100
C2067       C  0.62098406  0.29366673  0.69297680    -0.11500
C2068       C  0.63235921  0.28963194  0.69125069    -0.13100
C2069       C  0.64250649  0.22598878  0.81969554    -0.11500
C2070       C  0.63039285  0.22621097  0.82039691    -0.13100
C2071       C  0.73181012  0.26399915  0.82206781    -0.16700
C2072       C  0.74227733  0.26994908  0.82364967     0.07300
C2073       C  0.75491260  0.27613979  0.82559376     0.09200
C2074       C  0.76620109  0.28045525  0.82669175    -0.17600
C2075       C  0.68384318  0.25405804  0.77204063    -0.16700
C2076       C  0.68257496  0.25731563  0.76036223     0.07300
C2077       C  0.68124373  0.26115844  0.74666739     0.09200
C2078       C  0.68053348  0.26459045  0.73499133    -0.17600
C2079       C  0.86641783  0.26061385  0.69533384    -0.11500
C2080       C  0.87733350  0.25563308  0.69737074    -0.13100
C2081       C  0.76854757  0.27101120  0.68893713    -0.16700
C2082       C  0.75646134  0.27237110  0.68816376     0.07300
C2083       C  0.74229831  0.27410675  0.68740918     0.09200
C2084       C  0.73020425  0.27557249  0.68711368    -0.17600
C2085       C  0.81575206  0.27443332  0.74089150    -0.16700
C2086       C  0.81601225  0.27612921  0.75296348     0.07300
C2087       C  0.81667309  0.27815226  0.76709077     0.09200
C2088       C  0.81695836  0.27999928  0.77913767    -0.17600
C2089       C  0.26843444  0.61312093  0.67163864    -0.11500
C2090       C  0.27090555  0.62470361  0.67442954    -0.13100
C2091       C  0.26587461  0.85851613  0.81855387    -0.11500
C2092       C  0.27042167  0.86983352  0.81787822    -0.13100
C2093       C  0.20725625  0.62042755  0.80007073    -0.11500
C2094       C  0.21316042  0.63061305  0.80314061    -0.13100
C2095       C  0.25010346  0.67455945  0.76424343    -0.16700
C2096       C  0.25410763  0.67270744  0.75289014     0.07300
C2097       C  0.25767447  0.67023249  0.73929643     0.09200
C2098       C  0.25990190  0.66898284  0.72738751    -0.17600
C2099       C  0.24544570  0.72275969  0.81539545    -0.16700
C2100       C  0.24823050  0.73453197  0.81698892     0.07300
C2101       C  0.25124294  0.74838738  0.81881471     0.09200
C2102       C  0.25354212  0.76032609  0.81983460    -0.17600
C2103       C  0.21900804  0.86359980  0.68798244    -0.11500
C2104       C  0.21823109  0.85145746  0.68718816    -0.13100
C2105       C  0.23928179  0.80487532  0.73443535    -0.16700
C2106       C  0.24232906  0.80643083  0.74612808     0.07300
C2107       C  0.24545998  0.80862933  0.75987842     0.09200
C2108       C  0.24797104  0.80996292  0.77172510    -0.17600
C2109       C  0.23864872  0.75526021  0.68457101    -0.16700
C2110       C  0.24333065  0.74410509  0.68327602     0.07300
C2111       C  0.24896990  0.73110795  0.68179840     0.09200
C2112       C  0.25368550  0.71993123  0.68090597    -0.17600
C2113       C  0.21260388  0.69772145  0.43441562    -0.16700
C2114       C  0.22117451  0.68924987  0.43312124     0.07300
C2115       C  0.23249620  0.68104159  0.43074356     0.09200
C2116       C  0.24316172  0.67576140  0.42847622    -0.17600
C2117       C  0.30364358  0.71256848  0.51683275    -0.16700
C2118       C  0.30969276  0.71090464  0.50643915     0.07300
C2119       C  0.31501094  0.70751696  0.49369396     0.09200
C2120       C  0.31759676  0.70352773  0.48251491    -0.17600
C2121       C  0.28042011  0.67904477  0.63182863    -0.11500
C2122       C  0.28137475  0.67958704  0.61974796    -0.13100
C2123       C  0.18167390  0.78964987  0.48463407    -0.16700
C2124       C  0.18024979  0.79337963  0.49610670     0.07300
C2125       C  0.17850014  0.79511467  0.51011460     0.09200
C2126       C  0.17672346  0.79441458  0.52211007    -0.17600
C2127       C  0.17380405  0.71034045  0.57060884    -0.16700
C2128       C  0.18155561  0.70236408  0.56580716     0.07300
C2129       C  0.19290797  0.69568421  0.56058430     0.09200
C2130       C  0.20392326  0.69202687  0.55713743    -0.17600
C2131       C  0.20605599  0.79904726  0.64145272    -0.11500
C2132       C  0.20125949  0.79580939  0.63073383    -0.13100
C2133       C  0.32058479  0.72436940  0.36234487    -0.11500
C2134       C  0.31931718  0.71825801  0.37279550    -0.13100
C2135       C  0.18614714  0.77956398  0.37338398    -0.11500
C2136       C  0.18775964  0.78114083  0.36145653    -0.13100
C2137       C  0.23890054  0.76302541  0.31757251    -0.16700
C2138       C  0.25088995  0.76150185  0.31843714     0.07300
C2139       C  0.26487369  0.75932386  0.31923079     0.09200
C2140       C  0.27675097  0.75694476  0.31945792    -0.17600
C2141       C  0.32535845  0.76972489  0.23294345    -0.16700
C2142       C  0.32590434  0.76649454  0.24469242     0.07300
C2143       C  0.32617105  0.76264608  0.25845907     0.09200
C2144       C  0.32610139  0.75931395  0.27019261    -0.17600
C2145       C  0.19089399  0.75320978  0.26768922    -0.16700
C2146       C  0.19090162  0.74813353  0.25662672     0.07300
C2147       C  0.19121492  0.74245555  0.24355934     0.09200
C2148       C  0.19194654  0.73814313  0.23220237    -0.17600
C2149       C  0.24124763  0.74695661  0.18353640    -0.16700
C2150       C  0.25213279  0.75243154  0.18342708     0.07300
C2151       C  0.26491103  0.75880090  0.18349608     0.09200
C2152       C  0.27590683  0.76404514  0.18372934    -0.17600
C2153       C  0.20329079  0.70979444  0.12609982    -0.11500
C2154       C  0.20057602  0.71407353  0.13715168    -0.13100
C2155       C  0.32245168  0.71238736  0.06476186    -0.16700
C2156       C  0.31489068  0.70301832  0.06635574     0.07300
C2157       C  0.30422651  0.69397641  0.06887331     0.09200
C2158       C  0.29387783  0.68812511  0.07128656    -0.17600
C2159       C  0.32052956  0.79356044  0.12507275    -0.11500
C2160       C  0.31877007  0.79336218  0.13711052    -0.13100
C2161       C  0.21005110  0.68993638  0.97977415    -0.16700
C2162       C  0.20703848  0.68877884  0.99149977     0.07300
C2163       C  0.20588163  0.68712808  0.00560501     0.09200
C2164       C  0.20696485  0.68535282  0.01758668    -0.17600
C2165       C  0.22514585  0.67221462  0.85827532    -0.11500
C2166       C  0.22629077  0.67116033  0.87034723    -0.13100
C2167       C  0.32636387  0.81502344  0.97615575    -0.16700
C2168       C  0.32493320  0.81519921  0.98823987     0.07300
C2169       C  0.32395018  0.81261110  0.00223093     0.09200
C2170       C  0.32366434  0.80829578  0.01360837    -0.17600
C2171       C  0.33091314  0.72883528  0.92150062    -0.16700
C2172       C  0.32412020  0.71901909  0.92374875     0.07300
C2173       C  0.31415419  0.70922173  0.92633620     0.09200
C2174       C  0.30435344  0.70234345  0.92832288    -0.17600
C2175       C  0.28812259  0.80605148  0.87294601    -0.11500
C2176       C  0.28027677  0.80717713  0.86373148    -0.13100
C2177       C  0.13494284  0.79343503  0.30329908    -0.11500
C2178       C  0.14567291  0.78897125  0.30668635    -0.13100
C2179       C  0.07935616  0.79919070  0.21163350    -0.16700
C2180       C  0.07820737  0.79325125  0.20109336     0.07300
C2181       C  0.07670687  0.78473459  0.18979268     0.09200
C2182       C  0.07548040  0.77600956  0.18142074    -0.17600
C2183       C  0.15106591  0.70694203  0.18502733    -0.11500
C2184       C  0.13938207  0.70420699  0.18312469    -0.13100
C2185       C  0.98726996  0.79089994  0.29557953    -0.16700
C2186       C  0.99867843  0.79205435  0.29949775     0.07300
C2187       C  0.01256916  0.79431920  0.30123922     0.09200
C2188       C  0.02434081  0.79693488  0.30004575    -0.17600
C2189       C  0.99283942  0.67969678  0.20540412    -0.16700
C2190       C  0.00498625  0.67941132  0.20504189     0.07300
C2191       C  0.01897433  0.68084503  0.20273112     0.09200
C2192       C  0.03023225  0.68399724  0.19937987    -0.17600
C2193       C  0.93232759  0.74799073  0.17495271    -0.16700
C2194       C  0.93415456  0.75819971  0.18129034     0.07300
C2195       C  0.93562944  0.76840206  0.19110149     0.09200
C2196       C  0.93636652  0.77576954  0.20074200    -0.17600
C2197       C  0.57920023  0.68712787  0.23767099    -0.16700
C2198       C  0.58054835  0.69416562  0.22789339     0.07300
C2199       C  0.58188853  0.70522137  0.21910975     0.09200
C2200       C  0.58293217  0.71633228  0.21435683    -0.17600
C2201       C  0.49191145  0.70965821  0.33026713    -0.16700
C2202       C  0.50367324  0.70980532  0.33329704     0.07300
C2203       C  0.51787694  0.70903477  0.33357818     0.09200
C2204       C  0.52963448  0.70756656  0.33092642    -0.17600
C2205       C  0.37109520  0.73049682  0.31476243    -0.11500
C2206       C  0.38237443  0.72622923  0.31352747    -0.13100
C2207       C  0.49143104  0.80451500  0.19232642    -0.16700
C2208       C  0.50230813  0.80819658  0.19617556     0.07300
C2209       C  0.51574952  0.80935707  0.20045866     0.09200
C2210       C  0.52731321  0.80747306  0.20345239    -0.17600
C2211       C  0.44354967  0.69055478  0.23616110    -0.16700
C2212       C  0.44469012  0.69493978  0.22491254     0.07300
C2213       C  0.44569882  0.70259875  0.21300425     0.09200
C2214       C  0.44586535  0.71087847  0.20413778    -0.17600
C2215       C  0.38132495  0.79280389  0.18448379    -0.11500
C2216       C  0.36927052  0.79383170  0.18502261    -0.13100
C2217       C  0.86953954  0.81944563  0.28865146    -0.11500
C2218       C  0.88102751  0.81834697  0.28491778    -0.13100
C2219       C  0.65172219  0.68767300  0.31840180    -0.11500
C2220       C  0.63964160  0.68696701  0.31921903    -0.13100
C2221       C  0.88473008  0.68771508  0.23649865    -0.11500
C2222       C  0.87388115  0.68696011  0.24195474    -0.13100
C2223       C  0.82752382  0.73194721  0.26871578    -0.16700
C2224       C  0.82681298  0.74365466  0.27189878     0.07300
C2225       C  0.82548367  0.75727370  0.27575523     0.09200
C2226       C  0.82430847  0.76891726  0.27902517    -0.17600
C2227       C  0.78023228  0.68112763  0.27286612    -0.16700
C2228       C  0.76887594  0.68155825  0.27715069     0.07300
C2229       C  0.75569654  0.68281623  0.28233785     0.09200
C2230       C  0.74449065  0.68401205  0.28686362    -0.17600
C2231       C  0.63098538  0.80883461  0.24363025    -0.11500
C2232       C  0.64219268  0.81197785  0.24701670    -0.13100
C2233       C  0.68960174  0.76895253  0.27428628    -0.16700
C2234       C  0.69077601  0.75718400  0.27727977     0.07300
C2235       C  0.69243244  0.74351673  0.28113864     0.09200
C2236       C  0.69376093  0.73200431  0.28494832    -0.17600
C2237       C  0.77240122  0.81551587  0.28359081    -0.16700
C2238       C  0.76064257  0.81685781  0.28100127     0.07300
C2239       C  0.74693376  0.81893914  0.27807607     0.09200
C2240       C  0.73515153  0.82016562  0.27554610    -0.17600
C2241       C  0.70795424  0.63176426  0.33015033    -0.11500
C2242       C  0.70452726  0.64249855  0.32554932    -0.13100
C2243       C  0.82435478  0.55792762  0.30544332    -0.16700
C2244       C  0.81770504  0.56195896  0.31474595     0.07300
C2245       C  0.80836443  0.56725042  0.32402230     0.09200
C2246       C  0.79924281  0.57158829  0.33071812    -0.17600
C2247       C  0.82602285  0.63605211  0.24550596    -0.11500
C2248       C  0.82625339  0.62408201  0.24331876    -0.13100
C2249       C  0.71481399  0.52408352  0.36097624    -0.16700
C2250       C  0.71358884  0.51196332  0.36080810     0.07300
C2251       C  0.71483749  0.49776015  0.36018119     0.09200
C2252       C  0.71809267  0.48606821  0.35924290    -0.17600
C2253       C  0.80111200  0.48476431  0.19414997    -0.16700
C2254       C  0.80029140  0.49690010  0.19481038     0.07300
C2255       C  0.80055696  0.51045503  0.19930244     0.09200
C2256       C  0.80181588  0.52078560  0.20565033    -0.17600
C2257       C  0.80226605  0.43365249  0.32127642    -0.16700
C2258       C  0.80715368  0.43359497  0.31017890     0.07300
C2259       C  0.81063038  0.43313908  0.29642169     0.09200
C2260       C  0.81205372  0.43233660  0.28439899    -0.17600
C2261       C  0.73256646  0.18068898  0.27915746    -0.16700
C2262       C  0.72949681  0.18162354  0.26742653     0.07300
C2263       C  0.72589265  0.18373083  0.25381531     0.09200
C2264       C  0.72270974  0.18543316  0.24220242    -0.17600
C2265       C  0.71838933  0.36349801  0.33981301    -0.11500
C2266       C  0.72188331  0.37480276  0.34283123    -0.13100
C2267       C  0.72956092  0.23076859  0.32754797    -0.16700
C2268       C  0.72494610  0.24204472  0.32730339     0.07300
C2269       C  0.71955695  0.25526314  0.32692578     0.09200
C2270       C  0.71551977  0.26676180  0.32685240    -0.17600
C2271       C  0.76857694  0.36476886  0.20069731    -0.11500
C2272       C  0.77441627  0.37541617  0.20180471    -0.13100
C2273       C  0.72924978  0.27418356  0.19790801    -0.16700
C2274       C  0.72476136  0.26285396  0.19727618     0.07300
C2275       C  0.72016953  0.24934271  0.19641424     0.09200
C2276       C  0.71695528  0.23758547  0.19585062    -0.17600
C2277       C  0.72875760  0.32079028  0.28506316    -0.16700
C2278       C  0.73210369  0.32172866  0.27338148     0.07300
C2279       C  0.73561205  0.32234897  0.25955085     0.09200
C2280       C  0.73830978  0.32240416  0.24766430    -0.17600
C2281       C  0.70885584  0.12774982  0.19151364    -0.11500
C2282       C  0.70733711  0.13975753  0.19248663    -0.13100
C2283       C  0.78691311  0.06512060  0.21170787    -0.16700
C2284       C  0.79644131  0.06833078  0.21848923     0.07300
C2285       C  0.80579039  0.07310603  0.22805228     0.09200
C2286       C  0.81193325  0.07733520  0.23762712    -0.17600
C2287       C  0.77152860  0.12862398  0.32179331    -0.11500
C2288       C  0.76517103  0.13870165  0.32432426    -0.13100
C2289       C  0.67932930  0.98471081  0.21765490    -0.16700
C2290       C  0.67941361  0.99684305  0.21869662     0.07300
C2291       C  0.68226492  0.01082248  0.21855126     0.09200
C2292       C  0.68697832  0.02201176  0.21762334    -0.17600
C2293       C  0.69016298  0.87493071  0.24101291    -0.11500
C2294       C  0.68894303  0.86386542  0.24604245    -0.13100
C2295       C  0.80406433  0.98563993  0.31252105    -0.16700
C2296       C  0.80511566  0.99685081  0.31708162     0.07300
C2297       C  0.80630738  0.01080497  0.31956670     0.09200
C2298       C  0.80739261  0.02290854  0.31937812    -0.17600
C2299       C  0.76179864  0.93656730  0.19069472    -0.16700
C2300       C  0.77262204  0.93963525  0.19520737     0.07300
C2301       C  0.78380436  0.94217772  0.20355486     0.09200
C2302       C  0.79161920  0.94317145  0.21276961    -0.17600
C2303       C  0.81685094  0.86497092  0.29684230    -0.11500
C2304       C  0.81500522  0.87675788  0.29459669    -0.13100
C2305       C  0.76482402  0.31470795  0.14034417    -0.11500
C2306       C  0.76064555  0.31628342  0.15167878    -0.13100
C2307       C  0.80422858  0.23333044  0.08181951    -0.16700
C2308       C  0.79974445  0.22251216  0.07861410     0.07300
C2309       C  0.79188008  0.21099328  0.07592673     0.09200
C2310       C  0.78325247  0.20256621  0.07458440    -0.17600
C2311       C  0.69908411  0.19072642  0.13466651    -0.11500
C2312       C  0.69837375  0.19162816  0.14678672    -0.13100
C2313       C  0.81380269  0.31115008  0.99850647    -0.16700
C2314       C  0.81087295  0.31596322  0.00931440     0.07300
C2315       C  0.80809022  0.31962217  0.02284406     0.09200
C2316       C  0.80665792  0.32041252  0.03491913    -0.17600
C2317       C  0.81413696  0.29499896  0.88864903    -0.11500
C2318       C  0.81188697  0.29559472  0.87670336    -0.13100
C2319       C  0.68937379  0.19260169  0.98447722    -0.16700
C2320       C  0.68662677  0.19233319  0.99632067     0.07300
C2321       C  0.68681559  0.19195835  0.01056389     0.09200
C2322       C  0.68977775  0.19160732  0.02235529    -0.17600
C2323       C  0.78648497  0.20240846  0.94053860    -0.16700
C2324       C  0.79791367  0.20562181  0.94304951     0.07300
C2325       C  0.81056945  0.21143167  0.94588157     0.09200
C2326       C  0.82022262  0.21852012  0.94789118    -0.17600
C2327       C  0.69879440  0.22013845  0.87662388    -0.11500
C2328       C  0.69561630  0.22411457  0.86555204    -0.13100
C2329       C  0.82151399  0.26235744  0.63051887    -0.11500
C2330       C  0.82038905  0.26291136  0.64264597    -0.13100
C2331       C  0.76450035  0.34293361  0.57022341    -0.16700
C2332       C  0.77615115  0.34051250  0.56794193     0.07300
C2333       C  0.78914826  0.33538670  0.56549763     0.09200
C2334       C  0.79932655  0.32906215  0.56370300    -0.17600
C2335       C  0.68369574  0.30314784  0.63124035    -0.11500
C2336       C  0.68185271  0.29855903  0.64235021    -0.13100
C2337       C  0.65370309  0.32464441  0.49023477    -0.16700
C2338       C  0.65717689  0.32827951  0.50129957     0.07300
C2339       C  0.66224408  0.33091886  0.51433310     0.09200
C2340       C  0.66744053  0.33224522  0.52523503    -0.17600
C2341       C  0.68735935  0.31080898  0.37365708    -0.11500
C2342       C  0.68186412  0.30886085  0.38434509    -0.13100
C2343       C  0.78200693  0.21880759  0.49233647    -0.16700
C2344       C  0.78796326  0.22322940  0.50202407     0.07300
C2345       C  0.79408690  0.22853137  0.51382544     0.09200
C2346       C  0.79897524  0.23384713  0.52366387    -0.17600
C2347       C  0.68467845  0.19724190  0.46084127    -0.16700
C2348       C  0.67617069  0.20578997  0.45963911     0.07300
C2349       C  0.66827751  0.21734016  0.45720763     0.09200
C2350       C  0.66322310  0.22798790  0.45431430    -0.17600
C2351       C  0.75507928  0.18670105  0.38747729    -0.11500
C2352       C  0.75496388  0.18627048  0.37527620    -0.13100
loop_ 
_geom_bond_atom_site_label_1 
_geom_bond_atom_site_label_2 
_geom_bond_distance 
_geom_bond_site_symmetry_2 
_ccdc_geom_bond_type 
N1            N2   1.325       .  A
N1            C5   1.352       .  A
N1           Cu9   2.108       .  S
N2            C3   1.344       .  A
N2           Cu8   2.070       .  S
C3            C4   1.377       .  A
C3            H6   1.082       .  S
C4            C5   1.387       .  A
C4         C2351   1.446       .  S
C5            H7   1.082       .  S
Cu8          N11   2.068       .  S
Cu9          N19   2.108       .  S
Cu10         N12   2.060       .  S
Cu10         N18   2.061       .  S
N11          N12   1.320       .  A
N11          C15   1.344       .  A
N12          C13   1.343       .  A
C13          C14   1.381       .  A
C13          H16   1.082       .  S
C14          C15   1.382       .  A
C14        C2347   1.435       .  S
C15          H17   1.082       .  S
N18          N19   1.324       .  A
N18          C22   1.342       .  A
N19          C20   1.353       .  A
C20          C21   1.388       .  A
C20          H23   1.082       .  S
C21          C22   1.375       .  A
C21        C2343   1.444       .  S
C22          H24   1.082       .  S
N25          N26   1.323       .  A
N25          C29   1.350       .  A
N25         Cu33   2.090       .  S
N26          C27   1.343       .  A
N26         Cu32   2.066       .  S
C27          C28   1.376       .  A
C27          H30   1.082       .  S
C28          C29   1.385       .  A
C28        C2342   1.440       .  S
C29          H31   1.082       .  S
Cu32         N35   2.066       .  S
Cu33         N43   2.090       .  S
Cu34         N36   2.067       .  S
Cu34         N42   2.067       .  S
N35          N36   1.321       .  A
N35          C39   1.343       .  A
N36          C37   1.347       .  A
C37          C38   1.381       .  A
C37          H40   1.082       .  S
C38          C39   1.379       .  A
C38        C2350   1.436       .  S
C39          H41   1.082       .  S
N42          N43   1.325       .  A
N42          C46   1.342       .  A
N43          C44   1.348       .  A
C44          C45   1.383       .  A
C44          H47   1.082       .  S
C45          C46   1.376       .  A
C45        C2337   1.437       .  S
C46          H48   1.082       .  S
N49          N50   1.323       .  A
N49          C53   1.348       .  A
N49         Cu57   2.081       .  S
N50          C51   1.343       .  A
N50         Cu56   2.069       .  S
C51          C52   1.377       .  A
C51          H54   1.082       .  S
C52          C53   1.382       .  A
C52        C2335   1.437       .  S
C53          H55   1.082       .  S
Cu56         N59   2.068       .  S
Cu57         N67   2.082       .  S
Cu58         N60   2.071       .  S
Cu58         N66   2.071       .  S
N59          N60   1.322       .  A
N59          C63   1.344       .  A
N60          C61   1.346       .  A
C61          C62   1.381       .  A
C61          H64   1.082       .  S
C62          C63   1.380       .  A
C62        C2331   1.436       .  S
C63          H65   1.082       .  S
N66          N67   1.324       .  A
N66          C70   1.344       .  A
N67          C68   1.347       .  A
C68          C69   1.381       .  A
C68          H71   1.082       .  S
C69          C70   1.378       .  A
C69        C2340   1.437       .  S
C70          H72   1.082       .  S
N73          N74   1.325       .  A
N73          C77   1.351       .  A
N73         Cu81   2.109       .  S
N74          C75   1.343       .  A
N74         Cu80   2.061       .  S
C75          C76   1.375       .  A
C75          H78   1.082       .  S
C76          C77   1.387       .  A
C76        C2329   1.442       .  S
C77          H79   1.082       .  S
Cu80         N83   2.060       .  S
Cu81         N91   2.109       .  S
Cu82         N84   2.060       .  S
Cu82         N90   2.060       .  S
N83          N84   1.319       .  A
N83          C87   1.344       .  A
N84          C85   1.343       .  A
C85          C86   1.381       .  A
C85          H88   1.082       .  S
C86          C87   1.381       .  A
C86        C2334   1.436       .  S
C87          H89   1.082       .  S
N90          N91   1.324       .  A
N90          C94   1.342       .  A
N91          C92   1.353       .  A
C92          C93   1.389       .  A
C92          H95   1.082       .  S
C93          C94   1.374       .  A
C93        C2346   1.444       .  S
C94          H96   1.082       .  S
N97          N98   1.325       .  A
N97         C101   1.349       .  A
N97        Cu105   2.091       .  S
N98          C99   1.345       .  A
N98        Cu104   2.081       .  S
C99         C100   1.379       .  A
C99         H102   1.082       .  S
C100        C101   1.382       .  A
C100       C2327   1.443       .  S
C101        H103   1.082       .  S
Cu104       N107   2.079       .  S
Cu105       N115   2.091       .  S
Cu106       N108   2.061       .  S
Cu106       N114   2.061       .  S
N107        N108   1.321       .  A
N107        C111   1.346       .  A
N108        C109   1.345       .  A
C109        C110   1.378       .  A
C109        H112   1.082       .  S
C110        C111   1.382       .  A
C110       C2323   1.437       .  S
C111        H113   1.082       .  S
N114        N115   1.323       .  A
N114        C118   1.340       .  A
N115        C116   1.351       .  A
C116        C117   1.385       .  A
C116        H119   1.082       .  S
C117        C118   1.375       .  A
C117       C2319   1.439       .  S
C118        H120   1.082       .  S
N121        N122   1.324       .  A
N121        C125   1.349       .  A
N121       Cu129   2.085       .  S
N122        C123   1.343       .  A
N122       Cu128   2.067       .  S
C123        C124   1.378       .  A
C123        H126   1.082       .  S
C124        C125   1.382       .  A
C124       C2317   1.439       .  S
C125        H127   1.082       .  S
Cu128       N131   2.064       .  S
Cu129       N139   2.086       .  S
Cu130       N132   2.075       .  S
Cu130       N138   2.077       .  S
N131        N132   1.321       .  A
N131        C135   1.343       .  A
N132        C133   1.345       .  A
C133        C134   1.382       .  A
C133        H136   1.082       .  S
C134        C135   1.380       .  A
C134       C2326   1.435       .  S
C135        H137   1.082       .  S
N138        N139   1.324       .  A
N138        C142   1.345       .  A
N139        C140   1.349       .  A
C140        C141   1.383       .  A
C140        H143   1.082       .  S
C141        C142   1.380       .  A
C141       C2313   1.443       .  S
C142        H144   1.082       .  S
N145        N146   1.324       .  A
N145        C149   1.352       .  A
N145       Cu153   2.097       .  S
N146        C147   1.340       .  A
N146       Cu152   2.061       .  S
C147        C148   1.373       .  A
C147        H150   1.082       .  S
C148        C149   1.386       .  A
C148       C2311   1.439       .  S
C149        H151   1.082       .  S
Cu152       N155   2.061       .  S
Cu153       N163   2.097       .  S
Cu154       N156   2.062       .  S
Cu154       N162   2.064       .  S
N155        N156   1.319       .  A
N155        C159   1.344       .  A
N156        C157   1.344       .  A
C157        C158   1.381       .  A
C157        H160   1.082       .  S
C158        C159   1.381       .  A
C158       C2310   1.434       .  S
C159        H161   1.082       .  S
N162        N163   1.325       .  A
N162        C166   1.341       .  A
N163        C164   1.351       .  A
C164        C165   1.385       .  A
C164        H167   1.082       .  S
C165        C166   1.374       .  A
C165       C2322   1.439       .  S
C166        H168   1.082       .  S
N169        N170   1.324       .  A
N169        C173   1.354       .  A
N169       Cu177   2.113       .  S
N170        C171   1.340       .  A
N170       Cu176   2.053       .  S
C171        C172   1.371       .  A
C171        H174   1.082       .  S
C172        C173   1.390       .  A
C172       C2305   1.441       .  S
C173        H175   1.082       .  S
Cu176       N179   2.053       .  S
Cu177       N187   2.113       .  S
Cu178       N180   2.058       .  S
Cu178       N186   2.056       .  S
N179        N180   1.318       .  A
N179        C183   1.341       .  A
N180        C181   1.346       .  A
C181        C182   1.381       .  A
C181        H184   1.082       .  S
C182        C183   1.379       .  A
C182       C2307   1.433       .  S
C183        H185   1.082       .  S
N186        N187   1.325       .  A
N186        C190   1.339       .  A
N187        C188   1.354       .  A
C188        C189   1.390       .  A
C188        H191   1.082       .  S
C189        C190   1.372       .  A
C189       C2316   1.442       .  S
C190        H192   1.082       .  S
N193        N194   1.323       .  A
N193        C197   1.346       .  A
N193       Cu201   2.071       .  S
N194        C195   1.343       .  A
N194       Cu200   2.069       .  S
C195        C196   1.378       .  A
C195        H198   1.082       .  S
C196        C197   1.379       .  A
C196       C2304   1.434       .  S
C197        H199   1.082       .  S
Cu200       N203   2.068       .  S
Cu201       N211   2.072       .  S
Cu202       N204   2.069       .  S
Cu202       N210   2.069       .  S
N203        N204   1.321       .  A
N203        C207   1.343       .  A
N204        C205   1.345       .  A
C205        C206   1.382       .  A
C205        H208   1.082       .  S
C206        C207   1.380       .  A
C206       C2302   1.434       .  S
C207        H209   1.082       .  S
N210        N211   1.323       .  A
N210        C214   1.341       .  A
N211        C212   1.348       .  A
C212        C213   1.380       .  A
C212        H215   1.082       .  S
C213        C214   1.376       .  A
C213       C2295   1.434       .  S
C214        H216   1.082       .  S
N217        N218   1.325       .  A
N217        C221   1.352       .  A
N217       Cu225   2.103       .  S
N218        C219   1.344       .  A
N218       Cu224   2.073       .  S
C219        C220   1.377       .  A
C219        H222   1.082       .  S
C220        C221   1.386       .  A
C220       C2293   1.445       .  S
C221        H223   1.082       .  S
Cu224       N227   2.071       .  S
Cu225       N235   2.102       .  S
Cu226       N228   2.058       .  S
Cu226       N234   2.058       .  S
N227        N228   1.319       .  A
N227        C231   1.343       .  A
N228        C229   1.345       .  A
C229        C230   1.381       .  A
C229        H232   1.082       .  S
C230        C231   1.382       .  A
C230       C2299   1.435       .  S
C231        H233   1.082       .  S
N234        N235   1.324       .  A
N234        C238   1.340       .  A
N235        C236   1.352       .  A
C236        C237   1.387       .  A
C236        H239   1.082       .  S
C237        C238   1.374       .  A
C237       C2289   1.439       .  S
C238        H240   1.082       .  S
N241        N242   1.324       .  A
N241        C245   1.350       .  A
N241       Cu249   2.090       .  S
N242        C243   1.343       .  A
N242       Cu248   2.073       .  S
C243        C244   1.378       .  A
C243        H246   1.082       .  S
C244        C245   1.384       .  A
C244       C2287   1.442       .  S
C245        H247   1.082       .  S
Cu248       N251   2.072       .  S
Cu249       N259   2.088       .  S
Cu250       N252   2.059       .  S
Cu250       N258   2.062       .  S
N251        N252   1.320       .  A
N251        C255   1.344       .  A
N252        C253   1.343       .  A
C253        C254   1.379       .  A
C253        H256   1.082       .  S
C254        C255   1.383       .  A
C254       C2286   1.435       .  S
C255        H257   1.082       .  S
N258        N259   1.324       .  A
N258        C262   1.342       .  A
N259        C260   1.348       .  A
C260        C261   1.382       .  A
C260        H263   1.082       .  S
C261        C262   1.376       .  A
C261       C2298   1.436       .  S
C262        H264   1.082       .  S
N265        N266   1.324       .  A
N265        C269   1.346       .  A
N265       Cu273   2.077       .  S
N266        C267   1.343       .  A
N266       Cu272   2.065       .  S
C267        C268   1.377       .  A
C267        H270   1.082       .  S
C268        C269   1.379       .  A
C268       C2281   1.433       .  S
C269        H271   1.082       .  S
Cu272       N275   2.063       .  S
Cu273       N283   2.078       .  S
Cu274       N276   2.071       .  S
Cu274       N282   2.071       .  S
N275        N276   1.321       .  A
N275        C279   1.343       .  A
N276        C277   1.345       .  A
C277        C278   1.382       .  A
C277        H280   1.082       .  S
C278        C279   1.379       .  A
C278       C2283   1.434       .  S
C279        H281   1.082       .  S
N282        N283   1.323       .  A
N282        C286   1.342       .  A
N283        C284   1.349       .  A
C284        C285   1.383       .  A
C284        H287   1.082       .  S
C285        C286   1.377       .  A
C285       C2292   1.439       .  S
C286        H288   1.082       .  S
N289        C294   1.354       .  A
N289        C293   1.355       .  A
N289        H321   1.036       .  S
N290        C297   1.353       .  A
N290        C298   1.354       .  A
N291        C296   1.353       .  A
N291        C295   1.354       .  A
N291        H322   1.036       .  S
N292        C299   1.354       .  A
N292        C300   1.354       .  A
C293        C301   1.388       .  A
C293        C309   1.418       .  A
C294        C310   1.418       .  A
C294        C302   1.388       .  A
C295        C303   1.387       .  A
C295        C312   1.414       .  A
C296        C311   1.414       .  A
C296        C304   1.387       .  A
C297        C309   1.416       .  A
C297        C305   1.387       .  A
C298        C312   1.416       .  A
C298        C306   1.387       .  A
C299        C307   1.387       .  A
C299        C310   1.416       .  A
C300        C308   1.387       .  A
C300        C311   1.417       .  A
C301        C302   1.376       .  A
C301        H313   1.082       .  S
C302        H314   1.082       .  S
C303        C304   1.375       .  A
C303        H315   1.082       .  S
C304        H316   1.082       .  S
C305        C306   1.374       .  A
C305        H317   1.082       .  S
C306        H318   1.082       .  S
C307        C308   1.374       .  A
C307        H319   1.082       .  S
C308        H320   1.082       .  S
C309       C2273   1.456       .  S
C310       C2280   1.456       .  S
C311       C2271   1.454       .  S
C312       C2306   1.455       .  S
N323        C328   1.354       .  A
N323        C327   1.352       .  A
N323        H355   1.035       .  S
N324        C331   1.353       .  A
N324        C332   1.353       .  A
N325        C330   1.354       .  A
N325        C329   1.354       .  A
N325        H356   1.032       .  S
N326        C333   1.353       .  A
N326        C334   1.353       .  A
C327        C335   1.386       .  A
C327        C343   1.413       .  A
C328        C344   1.420       .  A
C328        C336   1.390       .  A
C329        C337   1.389       .  A
C329        C346   1.420       .  A
C330        C345   1.418       .  A
C330        C338   1.387       .  A
C331        C343   1.415       .  A
C331        C339   1.386       .  A
C332        C346   1.419       .  A
C332        C340   1.388       .  A
C333        C341   1.386       .  A
C333        C344   1.417       .  A
C334        C342   1.388       .  A
C334        C345   1.419       .  A
C335        C336   1.378       .  A
C335        H347   1.083       .  S
C336        H348   1.082       .  S
C337        C338   1.377       .  A
C337        H349   1.082       .  S
C338        H350   1.082       .  S
C339        C340   1.374       .  A
C339        H351   1.082       .  S
C340        H352   1.082       .  S
C341        C342   1.375       .  A
C341        H353   1.082       .  S
C342        H354   1.082       .  S
C343       C2270   1.455       .  S
C344       C2277   1.456       .  S
C345       C2265   1.457       .  S
C346       C2341   1.455       .  S
N357        C362   1.354       .  A
N357        C361   1.355       .  A
N357        H389   1.036       .  S
N358        C365   1.351       .  A
N358        C366   1.351       .  A
N359        C364   1.354       .  A
N359        C363   1.354       .  A
N359        H390   1.035       .  S
N360        C367   1.353       .  A
N360        C368   1.354       .  A
C361        C369   1.386       .  A
C361        C377   1.416       .  A
C362        C378   1.419       .  A
C362        C370   1.389       .  A
C363        C371   1.387       .  A
C363        C380   1.414       .  A
C364        C379   1.417       .  A
C364        C372   1.389       .  A
C365        C377   1.412       .  A
C365        C373   1.388       .  A
C366        C380   1.411       .  A
C366        C374   1.387       .  A
C367        C375   1.387       .  A
C367        C378   1.417       .  A
C368        C376   1.386       .  A
C368        C379   1.416       .  A
C369        C370   1.376       .  A
C369        H381   1.082       .  S
C370        H382   1.082       .  S
C371        C372   1.371       .  A
C371        H383   1.082       .  S
C372        H384   1.082       .  S
C373        C374   1.370       .  A
C373        H385   1.082       .  S
C374        H386   1.082       .  S
C375        C376   1.375       .  A
C375        H387   1.082       .  S
C376        H388   1.082       .  S
C377       C2264   1.453       .  S
C378       C2276   1.456       .  S
C379       C2312   1.454       .  S
C380       C2282   1.448       .  S
N391        C396   1.354       .  A
N391        C395   1.353       .  A
N391        H423   1.033       .  S
N392        C399   1.353       .  A
N392        C400   1.352       .  A
N393        C398   1.354       .  A
N393        C397   1.355       .  A
N393        H424   1.033       .  S
N394        C401   1.355       .  A
N394        C402   1.354       .  A
C395        C403   1.389       .  A
C395        C411   1.419       .  A
C396        C412   1.418       .  A
C396        C404   1.388       .  A
C397        C405   1.389       .  A
C397        C414   1.423       .  A
C398        C413   1.422       .  A
C398        C406   1.388       .  A
C399        C411   1.418       .  A
C399        C407   1.386       .  A
C400        C414   1.420       .  A
C400        C408   1.389       .  A
C401        C409   1.386       .  A
C401        C412   1.419       .  A
C402        C410   1.388       .  A
C402        C413   1.420       .  A
C403        C404   1.373       .  A
C403        H415   1.082       .  S
C404        H416   1.082       .  S
C405        C406   1.378       .  A
C405        H417   1.082       .  S
C406        H418   1.082       .  S
C407        C408   1.374       .  A
C407        H419   1.082       .  S
C408        H420   1.082       .  S
C409        C410   1.373       .  A
C409        H421   1.082       .  S
C410        H422   1.082       .  S
C411       C2261   1.453       .  S
C412       C2267   1.457       .  S
C413       C2352   1.459       .  S
C414       C2288   1.457       .  S
N425        N426   1.325       .  A
N425        C429   1.351       .  A
N425       Cu433   2.105       .  S
N426        C427   1.342       .  A
N426       Cu432   2.062       .  S
C427        C428   1.374       .  A
C427        H430   1.082       .  S
C428        C429   1.386       .  A
C428       C2272   1.440       .  S
C429        H431   1.082       .  S
Cu432       N435   2.061       .  S
Cu433       N443   2.104       .  S
Cu434       N436   2.058       .  S
Cu434       N442   2.057       .  S
N435        N436   1.319       .  A
N435        C439   1.344       .  A
N436        C437   1.345       .  A
C437        C438   1.380       .  A
C437        H440   1.082       .  S
C438        C439   1.380       .  A
C438       C2260   1.434       .  S
C439        H441   1.082       .  S
N442        N443   1.324       .  A
N442        C446   1.339       .  A
N443        C444   1.353       .  A
C444        C445   1.389       .  A
C444        H447   1.082       .  S
C445        C446   1.373       .  A
C445       C2253   1.440       .  S
C446        H448   1.082       .  S
N449        N450   1.324       .  A
N449        C453   1.351       .  A
N449       Cu457   2.099       .  S
N450        C451   1.343       .  A
N450       Cu456   2.066       .  S
C451        C452   1.376       .  A
C451        H454   1.082       .  S
C452        C453   1.386       .  A
C452       C2266   1.443       .  S
C453        H455   1.082       .  S
Cu456       N459   2.065       .  S
Cu457       N467   2.099       .  S
Cu458       N460   2.062       .  S
Cu458       N466   2.064       .  S
N459        N460   1.320       .  A
N459        C463   1.344       .  A
N460        C461   1.344       .  A
C461        C462   1.381       .  A
C461        H464   1.082       .  S
C462        C463   1.381       .  A
C462       C2257   1.434       .  S
C463        H465   1.082       .  S
N466        N467   1.325       .  A
N466        C470   1.342       .  A
N467        C468   1.351       .  A
C468        C469   1.385       .  A
C468        H471   1.082       .  S
C469        C470   1.375       .  A
C469       C2252   1.440       .  S
C470        H472   1.082       .  S
N473        N474   1.324       .  A
N473        C477   1.349       .  A
N473       Cu481   2.093       .  S
N474        C475   1.342       .  A
N474       Cu480   2.057       .  S
C475        C476   1.374       .  A
C475        H478   1.082       .  S
C476        C477   1.384       .  A
C476       C2248   1.437       .  S
C477        H479   1.082       .  S
Cu480       N483   2.055       .  S
Cu481       N491   2.092       .  S
Cu482       N484   2.068       .  S
Cu482       N490   2.069       .  S
N483        N484   1.320       .  A
N483        C487   1.343       .  A
N484        C485   1.344       .  A
C485        C486   1.382       .  A
C485        H488   1.082       .  S
C486        C487   1.379       .  A
C486       C2243   1.435       .  S
C487        H489   1.082       .  S
N490        N491   1.324       .  A
N490        C494   1.342       .  A
N491        C492   1.351       .  A
C492        C493   1.385       .  A
C492        H495   1.082       .  S
C493        C494   1.377       .  A
C493       C2256   1.441       .  S
C494        H496   1.082       .  S
N497        N498   1.325       .  A
N497        C501   1.351       .  A
N497       Cu505   2.093       .  S
N498        C499   1.342       .  A
N498       Cu504   2.072       .  S
C499        C500   1.376       .  A
C499        H502   1.082       .  S
C500        C501   1.384       .  A
C500       C2241   1.439       .  S
C501        H503   1.082       .  S
Cu504       N507   2.071       .  S
Cu505       N515   2.093       .  S
Cu506       N508   2.057       .  S
Cu506       N514   2.059       .  S
N507        N508   1.320       .  A
N507        C511   1.346       .  A
N508        C509   1.343       .  A
C509        C510   1.378       .  A
C509        H512   1.082       .  S
C510        C511   1.383       .  A
C510       C2246   1.435       .  S
C511        H513   1.082       .  S
N514        N515   1.323       .  A
N514        C518   1.341       .  A
N515        C516   1.351       .  A
C516        C517   1.386       .  A
C516        H519   1.082       .  S
C517        C518   1.375       .  A
C517       C2249   1.440       .  S
C518        H520   1.082       .  S
N521        C526   1.350       .  A
N521        C525   1.354       .  A
N521        H553   1.038       .  S
N522        C529   1.353       .  A
N522        C530   1.349       .  A
N523        C528   1.355       .  A
N523        C527   1.353       .  A
N523        H554   1.037       .  S
N524        C531   1.352       .  A
N524        C532   1.353       .  A
C525        C533   1.386       .  A
C525        C541   1.411       .  A
C526        C542   1.411       .  A
C526        C534   1.388       .  A
C527        C535   1.388       .  A
C527        C544   1.416       .  A
C528        C543   1.416       .  A
C528        C536   1.386       .  A
C529        C541   1.411       .  A
C529        C537   1.384       .  A
C530        C544   1.415       .  A
C530        C538   1.390       .  A
C531        C539   1.386       .  A
C531        C542   1.413       .  A
C532        C540   1.387       .  A
C532        C543   1.415       .  A
C533        C534   1.375       .  A
C533        H545   1.082       .  S
C534        H546   1.082       .  S
C535        C536   1.378       .  A
C535        H547   1.082       .  S
C536        H548   1.082       .  S
C537        C538   1.374       .  A
C537        H549   1.082       .  S
C538        H550   1.082       .  S
C539        C540   1.375       .  A
C539        H551   1.082       .  S
C540        H552   1.082       .  S
C541       C2233   1.456       .  S
C542       C2240   1.447       .  S
C543       C2294   1.458       .  S
C544       C2232   1.447       .  S
N555        C560   1.353       .  A
N555        C559   1.354       .  A
N555        H587   1.035       .  S
N556        C563   1.352       .  A
N556        C564   1.352       .  A
N557        C562   1.355       .  A
N557        C561   1.354       .  A
N557        H588   1.031       .  S
N558        C565   1.352       .  A
N558        C566   1.353       .  A
C559        C567   1.388       .  A
C559        C575   1.416       .  A
C560        C576   1.415       .  A
C560        C568   1.388       .  A
C561        C569   1.389       .  A
C561        C578   1.420       .  A
C562        C577   1.419       .  A
C562        C570   1.388       .  A
C563        C575   1.414       .  A
C563        C571   1.386       .  A
C564        C578   1.417       .  A
C564        C572   1.388       .  A
C565        C573   1.387       .  A
C565        C576   1.414       .  A
C566        C574   1.387       .  A
C566        C577   1.417       .  A
C567        C568   1.372       .  A
C567        H579   1.082       .  S
C568        H580   1.082       .  S
C569        C570   1.375       .  A
C569        H581   1.082       .  S
C570        H582   1.082       .  S
C571        C572   1.373       .  A
C571        H583   1.082       .  S
C572        H584   1.082       .  S
C573        C574   1.374       .  A
C573        H585   1.082       .  S
C574        H586   1.082       .  S
C575       C2227   1.453       .  S
C576       C2223   1.449       .  S
C577       C2222   1.456       .  S
C578       C2247   1.452       .  S
N589        C594   1.355       .  A
N589        C593   1.354       .  A
N589        H621   1.036       .  S
N590        C597   1.352       .  A
N590        C598   1.353       .  A
N591        C596   1.353       .  A
N591        C595   1.354       .  A
N591        H622   1.037       .  S
N592        C599   1.353       .  A
N592        C600   1.352       .  A
C593        C601   1.388       .  A
C593        C609   1.417       .  A
C594        C610   1.417       .  A
C594        C602   1.387       .  A
C595        C603   1.386       .  A
C595        C612   1.413       .  A
C596        C611   1.416       .  A
C596        C604   1.389       .  A
C597        C609   1.413       .  A
C597        C605   1.387       .  A
C598        C612   1.414       .  A
C598        C606   1.387       .  A
C599        C607   1.387       .  A
C599        C610   1.415       .  A
C600        C608   1.387       .  A
C600        C611   1.414       .  A
C601        C602   1.377       .  A
C601        H613   1.082       .  S
C602        H614   1.082       .  S
C603        C604   1.376       .  A
C603        H615   1.082       .  S
C604        H616   1.082       .  S
C605        C606   1.371       .  A
C605        H617   1.082       .  S
C606        H618   1.082       .  S
C607        C608   1.372       .  A
C607        H619   1.082       .  S
C608        H620   1.082       .  S
C609       C2230   1.453       .  S
C610       C2236   1.457       .  S
C611       C2219   1.450       .  S
C612       C2242   1.454       .  S
N623        C628   1.353       .  A
N623        C627   1.352       .  A
N623        H655   1.039       .  S
N624        C631   1.352       .  A
N624        C632   1.351       .  A
N625        C630   1.354       .  A
N625        C629   1.354       .  A
N625        H656   1.038       .  S
N626        C633   1.350       .  A
N626        C634   1.350       .  A
C627        C635   1.387       .  A
C627        C643   1.412       .  A
C628        C644   1.413       .  A
C628        C636   1.387       .  A
C629        C637   1.387       .  A
C629        C646   1.415       .  A
C630        C645   1.415       .  A
C630        C638   1.388       .  A
C631        C643   1.411       .  A
C631        C639   1.387       .  A
C632        C646   1.411       .  A
C632        C640   1.388       .  A
C633        C641   1.387       .  A
C633        C644   1.409       .  A
C634        C642   1.387       .  A
C634        C645   1.409       .  A
C635        C636   1.376       .  A
C635        H647   1.082       .  S
C636        H648   1.082       .  S
C637        C638   1.376       .  A
C637        H649   1.082       .  S
C638        H650   1.082       .  S
C639        C640   1.370       .  A
C639        H651   1.082       .  S
C640        H652   1.082       .  S
C641        C642   1.370       .  A
C641        H653   1.082       .  S
C642        H654   1.082       .  S
C643       C2226   1.449       .  S
C644       C2237   1.448       .  S
C645       C2303   1.448       .  S
C646       C2217   1.450       .  S
N657        N658   1.322       .  A
N657        C661   1.349       .  A
N657       Cu665   2.074       .  S
N658        C659   1.340       .  A
N658       Cu664   2.059       .  S
C659        C660   1.374       .  A
C659        H662   1.082       .  S
C660        C661   1.382       .  A
C660       C2215   1.432       .  S
C661        H663   1.082       .  S
Cu664       N667   2.058       .  S
Cu665       N675   2.075       .  S
Cu666       N668   2.069       .  S
Cu666       N674   2.070       .  S
N667        N668   1.320       .  A
N667        C671   1.342       .  A
N668        C669   1.346       .  A
C669        C670   1.382       .  A
C669        H672   1.082       .  S
C670        C671   1.378       .  A
C670       C2214   1.434       .  S
C671        H673   1.082       .  S
N674        N675   1.325       .  A
N674        C678   1.342       .  A
N675        C676   1.347       .  A
C676        C677   1.379       .  A
C676        H679   1.082       .  S
C677        C678   1.377       .  A
C677       C2207   1.432       .  S
C678        H680   1.082       .  S
N681        N682   1.325       .  A
N681        C685   1.349       .  A
N681       Cu689   2.092       .  S
N682        C683   1.342       .  A
N682       Cu688   2.066       .  S
C683        C684   1.374       .  A
C683        H686   1.082       .  S
C684        C685   1.382       .  A
C684       C2206   1.436       .  S
C685        H687   1.082       .  S
Cu688       N691   2.064       .  S
Cu689       N699   2.091       .  S
Cu690       N692   2.060       .  S
Cu690       N698   2.060       .  S
N691        N692   1.319       .  A
N691        C695   1.345       .  A
N692        C693   1.343       .  A
C693        C694   1.380       .  A
C693        H696   1.082       .  S
C694        C695   1.382       .  A
C694       C2211   1.433       .  S
C695        H697   1.082       .  S
N698        N699   1.323       .  A
N698        C702   1.340       .  A
N699        C700   1.351       .  A
C700        C701   1.386       .  A
C700        H703   1.082       .  S
C701        C702   1.375       .  A
C701       C2201   1.439       .  S
C702        H704   1.082       .  S
N705        N706   1.325       .  A
N705        C709   1.351       .  A
N705       Cu713   2.095       .  S
N706        C707   1.339       .  A
N706       Cu712   2.058       .  S
C707        C708   1.372       .  A
C707        H710   1.082       .  S
C708        C709   1.385       .  A
C708       C2220   1.435       .  S
C709        H711   1.082       .  S
Cu712       N715   2.059       .  S
Cu713       N723   2.095       .  S
Cu714       N716   2.061       .  S
Cu714       N722   2.061       .  S
N715        N716   1.318       .  A
N715        C719   1.345       .  A
N716        C717   1.342       .  A
C717        C718   1.381       .  A
C717        H720   1.082       .  S
C718        C719   1.382       .  A
C718       C2197   1.433       .  S
C719        H721   1.082       .  S
N722        N723   1.324       .  A
N722        C726   1.340       .  A
N723        C724   1.352       .  A
C724        C725   1.386       .  A
C724        H727   1.082       .  S
C725        C726   1.374       .  A
C725       C2204   1.439       .  S
C726        H728   1.082       .  S
N729        N730   1.322       .  A
N729        C733   1.348       .  A
N729       Cu737   2.073       .  S
N730        C731   1.340       .  A
N730       Cu736   2.059       .  S
C731        C732   1.375       .  A
C731        H734   1.082       .  S
C732        C733   1.381       .  A
C732       C2231   1.433       .  S
C733        H735   1.082       .  S
Cu736       N739   2.060       .  S
Cu737       N747   2.074       .  S
Cu738       N740   2.067       .  S
Cu738       N746   2.068       .  S
N739        N740   1.320       .  A
N739        C743   1.342       .  A
N740        C741   1.346       .  A
C741        C742   1.382       .  A
C741        H744   1.082       .  S
C742        C743   1.378       .  A
C742       C2200   1.433       .  S
C743        H745   1.082       .  S
N746        N747   1.325       .  A
N746        C750   1.341       .  A
N747        C748   1.347       .  A
C748        C749   1.379       .  A
C748        H751   1.082       .  S
C749        C750   1.375       .  A
C749       C2210   1.432       .  S
C750        H752   1.082       .  S
N753        N754   1.324       .  A
N753        C757   1.353       .  A
N753       Cu761   2.105       .  S
N754        C755   1.341       .  A
N754       Cu760   2.059       .  S
C755        C756   1.373       .  A
C755        H758   1.082       .  S
C756        C757   1.388       .  A
C756       C2221   1.441       .  S
C757        H759   1.082       .  S
Cu760       N763   2.057       .  S
Cu761       N771   2.105       .  S
Cu762       N764   2.058       .  S
Cu762       N770   2.061       .  S
N763        N764   1.318       .  A
N763        C767   1.342       .  A
N764        C765   1.344       .  A
C765        C766   1.382       .  A
C765        H768   1.082       .  S
C766        C767   1.381       .  A
C766       C2193   1.435       .  S
C767        H769   1.083       .  S
N770        N771   1.325       .  A
N770        C774   1.342       .  A
N771        C772   1.352       .  A
C772        C773   1.386       .  A
C772        H775   1.082       .  S
C773        C774   1.375       .  A
C773       C2189   1.442       .  S
C774        H776   1.082       .  S
N777        N778   1.324       .  A
N777        C781   1.346       .  A
N777       Cu785   2.075       .  S
N778        C779   1.345       .  A
N778       Cu784   2.079       .  S
C779        C780   1.379       .  A
C779        H782   1.082       .  S
C780        C781   1.379       .  A
C780       C2218   1.436       .  S
C781        H783   1.082       .  S
Cu784       N787   2.078       .  S
Cu785       N795   2.074       .  S
Cu786       N788   2.064       .  S
Cu786       N794   2.065       .  S
N787        N788   1.322       .  A
N787        C791   1.346       .  A
N788        C789   1.344       .  A
C789        C790   1.379       .  A
C789        H792   1.082       .  S
C790        C791   1.382       .  A
C790       C2196   1.437       .  S
C791        H793   1.082       .  S
N794        N795   1.322       .  A
N794        C798   1.342       .  A
N795        C796   1.347       .  A
C796        C797   1.381       .  A
C796        H799   1.082       .  S
C797        C798   1.377       .  A
C797       C2185   1.435       .  S
C798        H800   1.082       .  S
N801        N802   1.325       .  A
N801        C805   1.351       .  A
N801       Cu809   2.098       .  S
N802        C803   1.340       .  A
N802       Cu808   2.060       .  S
C803        C804   1.373       .  A
C803        H806   1.082       .  S
C804        C805   1.385       .  A
C804       C2184   1.437       .  S
C805        H807   1.082       .  S
Cu808       N811   2.061       .  S
Cu809       N819   2.098       .  S
Cu810       N812   2.059       .  S
Cu810       N818   2.061       .  S
N811        N812   1.318       .  A
N811        C815   1.345       .  A
N812        C813   1.343       .  A
C813        C814   1.381       .  A
C813        H816   1.082       .  S
C814        C815   1.382       .  A
C814       C2182   1.436       .  S
C815        H817   1.082       .  S
N818        N819   1.324       .  A
N818        C822   1.340       .  A
N819        C820   1.352       .  A
C820        C821   1.387       .  A
C820        H823   1.082       .  S
C821        C822   1.373       .  A
C821       C2192   1.440       .  S
C822        H824   1.082       .  S
N825        N826   1.324       .  A
N825        C829   1.346       .  A
N825       Cu833   2.076       .  S
N826        C827   1.343       .  A
N826       Cu832   2.071       .  S
C827        C828   1.377       .  A
C827        H830   1.082       .  S
C828        C829   1.379       .  A
C828       C2177   1.432       .  S
C829        H831   1.082       .  S
Cu832       N835   2.070       .  S
Cu833       N843   2.075       .  S
Cu834       N836   2.062       .  S
Cu834       N842   2.062       .  S
N835        N836   1.321       .  A
N835        C839   1.346       .  A
N836        C837   1.344       .  A
C837        C838   1.379       .  A
C837        H840   1.082       .  S
C838        C839   1.382       .  A
C838       C2179   1.437       .  S
C839        H841   1.082       .  S
N842        N843   1.323       .  A
N842        C846   1.340       .  A
N843        C844   1.348       .  A
C844        C845   1.382       .  A
C844        H847   1.082       .  S
C845        C846   1.376       .  A
C845       C2188   1.434       .  S
C846        H848   1.082       .  S
N849        N850   1.325       .  A
N849        C853   1.349       .  A
N849       Cu857   2.092       .  S
N850        C851   1.343       .  A
N850       Cu856   2.065       .  S
C851        C852   1.375       .  A
C851        H854   1.082       .  S
C852        C853   1.383       .  A
C852       C2175   1.438       .  S
C853        H855   1.082       .  S
Cu856       N859   2.063       .  S
Cu857       N867   2.092       .  S
Cu858       N860   2.065       .  S
Cu858       N866   2.065       .  S
N859        N860   1.320       .  A
N859        C863   1.344       .  A
N860        C861   1.344       .  A
C861        C862   1.381       .  A
C861        H864   1.082       .  S
C862        C863   1.381       .  A
C862       C2171   1.435       .  S
C863        H865   1.082       .  S
N866        N867   1.323       .  A
N866        C870   1.341       .  A
N867        C868   1.351       .  A
C868        C869   1.386       .  A
C868        H871   1.082       .  S
C869        C870   1.376       .  A
C869       C2167   1.440       .  S
C870        H872   1.082       .  S
N873        N874   1.324       .  A
N873        C877   1.349       .  A
N873       Cu881   2.089       .  S
N874        C875   1.343       .  A
N874       Cu880   2.066       .  S
C875        C876   1.377       .  A
C875        H878   1.082       .  S
C876        C877   1.384       .  A
C876       C2166   1.440       .  S
C877        H879   1.082       .  S
Cu880       N883   2.065       .  S
Cu881       N891   2.089       .  S
Cu882       N884   2.066       .  S
Cu882       N890   2.066       .  S
N883        N884   1.321       .  A
N883        C887   1.345       .  A
N884        C885   1.344       .  A
C885        C886   1.380       .  A
C885        H888   1.082       .  S
C886        C887   1.380       .  A
C886       C2174   1.435       .  S
C887        H889   1.082       .  S
N890        N891   1.323       .  A
N890        C894   1.342       .  A
N891        C892   1.350       .  A
C892        C893   1.385       .  A
C892        H895   1.082       .  S
C893        C894   1.376       .  A
C893       C2161   1.439       .  S
C894        H896   1.082       .  S
N897        N898   1.324       .  A
N897        C901   1.352       .  A
N897       Cu905   2.094       .  S
N898        C899   1.340       .  A
N898       Cu904   2.060       .  S
C899        C900   1.373       .  A
C899        H902   1.082       .  S
C900        C901   1.385       .  A
C900       C2159   1.438       .  S
C901        H903   1.082       .  S
Cu904       N907   2.060       .  S
Cu905       N915   2.094       .  S
Cu906       N908   2.069       .  S
Cu906       N914   2.070       .  S
N907        N908   1.320       .  A
N907        C911   1.344       .  A
N908        C909   1.345       .  A
C909        C910   1.382       .  A
C909        H912   1.082       .  S
C910        C911   1.380       .  A
C910       C2155   1.435       .  S
C911        H913   1.082       .  S
N914        N915   1.325       .  A
N914        C918   1.343       .  A
N915        C916   1.350       .  A
C916        C917   1.384       .  A
C916        H919   1.082       .  S
C917        C918   1.376       .  A
C917       C2170   1.441       .  S
C918        H920   1.082       .  S
N921        N922   1.324       .  A
N921        C925   1.350       .  A
N921       Cu929   2.088       .  S
N922        C923   1.341       .  A
N922       Cu928   2.065       .  S
C923        C924   1.374       .  A
C923        H926   1.082       .  S
C924        C925   1.384       .  A
C924       C2153   1.437       .  S
C925        H927   1.082       .  S
Cu928       N931   2.065       .  S
Cu929       N939   2.089       .  S
Cu930       N932   2.063       .  S
Cu930       N938   2.065       .  S
N931        N932   1.320       .  A
N931        C935   1.344       .  A
N932        C933   1.345       .  A
C933        C934   1.380       .  A
C933        H936   1.082       .  S
C934        C935   1.381       .  A
C934       C2158   1.435       .  S
C935        H937   1.082       .  S
N938        N939   1.324       .  A
N938        C942   1.342       .  A
N939        C940   1.350       .  A
C940        C941   1.384       .  A
C940        H943   1.082       .  S
C941        C942   1.376       .  A
C941       C2164   1.439       .  S
C942        H944   1.082       .  S
N945        C950   1.356       .  A
N945        C949   1.354       .  A
N945        H977   1.036       .  S
N946        C953   1.352       .  A
N946        C954   1.353       .  A
N947        C952   1.353       .  A
N947        C951   1.353       .  A
N947        H978   1.037       .  S
N948        C955   1.353       .  A
N948        C956   1.352       .  A
C949        C957   1.389       .  A
C949        C965   1.419       .  A
C950        C966   1.417       .  A
C950        C958   1.387       .  A
C951        C959   1.390       .  A
C951        C968   1.416       .  A
C952        C967   1.411       .  A
C952        C960   1.386       .  A
C953        C965   1.415       .  A
C953        C961   1.387       .  A
C954        C968   1.414       .  A
C954        C962   1.386       .  A
C955        C963   1.386       .  A
C955        C966   1.414       .  A
C956        C964   1.387       .  A
C956        C967   1.414       .  A
C957        C958   1.374       .  A
C957        H969   1.082       .  S
C958        H970   1.082       .  S
C959        C960   1.374       .  A
C959        H971   1.082       .  S
C960        H972   1.082       .  S
C961        C962   1.375       .  A
C961        H973   1.082       .  S
C962        H974   1.082       .  S
C963        C964   1.373       .  A
C963        H975   1.082       .  S
C964        H976   1.082       .  S
C965       C2148   1.453       .  S
C966       C2149   1.456       .  S
C967       C2154   1.451       .  S
C968       C2183   1.452       .  S
N979        C984   1.355       .  A
N979        C983   1.356       .  A
N979       H1011   1.034       .  S
N980        C987   1.353       .  A
N980        C988   1.351       .  A
N981        C986   1.354       .  A
N981        C985   1.355       .  A
N981       H1012   1.037       .  S
N982        C989   1.353       .  A
N982        C990   1.354       .  A
C983        C991   1.387       .  A
C983        C999   1.419       .  A
C984       C1000   1.421       .  A
C984        C992   1.389       .  A
C985        C993   1.388       .  A
C985       C1002   1.415       .  A
C986       C1001   1.416       .  A
C986        C994   1.389       .  A
C987        C999   1.416       .  A
C987        C995   1.387       .  A
C988       C1002   1.413       .  A
C988        C996   1.387       .  A
C989        C997   1.388       .  A
C989       C1000   1.418       .  A
C990        C998   1.386       .  A
C990       C1001   1.415       .  A
C991        C992   1.375       .  A
C991       H1003   1.082       .  S
C992       H1004   1.082       .  S
C993        C994   1.371       .  A
C993       H1005   1.082       .  S
C994       H1006   1.082       .  S
C995        C996   1.373       .  A
C995       H1007   1.082       .  S
C996       H1008   1.083       .  S
C997        C998   1.374       .  A
C997       H1009   1.082       .  S
C998       H1010   1.082       .  S
C999       C2141   1.458       .  S
C1000      C2152   1.457       .  S
C1001      C2160   1.454       .  S
C1002      C2216   1.449       .  S
N1013      C1018   1.353       .  A
N1013      C1017   1.353       .  A
N1013      H1045   1.034       .  S
N1014      C1021   1.352       .  A
N1014      C1022   1.351       .  A
N1015      C1020   1.351       .  A
N1015      C1019   1.351       .  A
N1015      H1046   1.034       .  S
N1016      C1023   1.350       .  A
N1016      C1024   1.352       .  A
C1017      C1025   1.387       .  A
C1017      C1033   1.415       .  A
C1018      C1034   1.417       .  A
C1018      C1026   1.389       .  A
C1019      C1027   1.389       .  A
C1019      C1036   1.414       .  A
C1020      C1035   1.410       .  A
C1020      C1028   1.386       .  A
C1021      C1033   1.414       .  A
C1021      C1029   1.386       .  A
C1022      C1036   1.415       .  A
C1022      C1030   1.388       .  A
C1023      C1031   1.387       .  A
C1023      C1034   1.413       .  A
C1024      C1032   1.387       .  A
C1024      C1035   1.413       .  A
C1025      C1026   1.376       .  A
C1025      H1037   1.082       .  S
C1026      H1038   1.082       .  S
C1027      C1028   1.377       .  A
C1027      H1039   1.082       .  S
C1028      H1040   1.083       .  S
C1029      C1030   1.372       .  A
C1029      H1041   1.082       .  S
C1030      H1042   1.082       .  S
C1031      C1032   1.373       .  A
C1031      H1043   1.082       .  S
C1032      H1044   1.082       .  S
C1033      C2145   1.453       .  S
C1034      C2137   1.449       .  S
C1035      C2136   1.447       .  S
C1036      C2178   1.447       .  S
N1047      C1052   1.356       .  A
N1047      C1051   1.353       .  A
N1047      H1079   1.036       .  S
N1048      C1055   1.351       .  A
N1048      C1056   1.353       .  A
N1049      C1054   1.353       .  A
N1049      C1053   1.355       .  A
N1049      H1080   1.037       .  S
N1050      C1057   1.353       .  A
N1050      C1058   1.352       .  A
C1051      C1059   1.388       .  A
C1051      C1067   1.416       .  A
C1052      C1068   1.417       .  A
C1052      C1060   1.387       .  A
C1053      C1061   1.388       .  A
C1053      C1070   1.415       .  A
C1054      C1069   1.414       .  A
C1054      C1062   1.388       .  A
C1055      C1067   1.414       .  A
C1055      C1063   1.388       .  A
C1056      C1070   1.413       .  A
C1056      C1064   1.386       .  A
C1057      C1065   1.386       .  A
C1057      C1068   1.414       .  A
C1058      C1066   1.387       .  A
C1058      C1069   1.415       .  A
C1059      C1060   1.375       .  A
C1059      H1071   1.082       .  S
C1060      H1072   1.082       .  S
C1061      C1062   1.374       .  A
C1061      H1073   1.082       .  S
C1062      H1074   1.082       .  S
C1063      C1064   1.374       .  A
C1063      H1075   1.082       .  S
C1064      H1076   1.082       .  S
C1065      C1066   1.373       .  A
C1065      H1077   1.082       .  S
C1066      H1078   1.082       .  S
C1067      C2140   1.449       .  S
C1068      C2144   1.458       .  S
C1069      C2205   1.450       .  S
C1070      C2133   1.454       .  S
N1081      N1082   1.324       .  A
N1081      C1085   1.348       .  A
N1081     Cu1089   2.082       .  S
N1082      C1083   1.345       .  A
N1082     Cu1088   2.079       .  S
C1083      C1084   1.380       .  A
C1083      H1086   1.082       .  S
C1084      C1085   1.381       .  A
C1084      C2132   1.440       .  S
C1085      H1087   1.082       .  S
Cu1088     N1091   2.077       .  S
Cu1089     N1099   2.081       .  S
Cu1090     N1092   2.061       .  S
Cu1090     N1098   2.063       .  S
N1091      N1092   1.321       .  A
N1091      C1095   1.345       .  A
N1092      C1093   1.343       .  A
C1093      C1094   1.380       .  A
C1093      H1096   1.082       .  S
C1094      C1095   1.383       .  A
C1094      C2127   1.434       .  S
C1095      H1097   1.082       .  S
N1098      N1099   1.323       .  A
N1098      C1102   1.342       .  A
N1099      C1100   1.348       .  A
C1100      C1101   1.383       .  A
C1100      H1103   1.082       .  S
C1101      C1102   1.377       .  A
C1101      C2126   1.437       .  S
C1102      H1104   1.082       .  S
N1105      N1106   1.322       .  A
N1105      C1109   1.346       .  A
N1105     Cu1113   2.069       .  S
N1106      C1107   1.342       .  A
N1106     Cu1112   2.062       .  S
C1107      C1108   1.377       .  A
C1107      H1110   1.082       .  S
C1108      C1109   1.380       .  A
C1108      C2122   1.432       .  S
C1109      H1111   1.082       .  S
Cu1112     N1115   2.062       .  S
Cu1113     N1123   2.069       .  S
Cu1114     N1116   2.078       .  S
Cu1114     N1122   2.078       .  S
N1115      N1116   1.322       .  A
N1115      C1119   1.343       .  A
N1116      C1117   1.346       .  A
C1117      C1118   1.383       .  A
C1117      H1120   1.082       .  S
C1118      C1119   1.378       .  A
C1118      C2130   1.435       .  S
C1119      H1121   1.082       .  S
N1122      N1123   1.323       .  A
N1122      C1126   1.344       .  A
N1123      C1124   1.345       .  A
C1124      C1125   1.379       .  A
C1124      H1127   1.082       .  S
C1125      C1126   1.380       .  A
C1125      C2117   1.437       .  S
C1126      H1128   1.082       .  S
N1129      N1130   1.324       .  A
N1129      C1133   1.349       .  A
N1129     Cu1137   2.090       .  S
N1130      C1131   1.343       .  A
N1130     Cu1136   2.067       .  S
C1131      C1132   1.376       .  A
C1131      H1134   1.082       .  S
C1132      C1133   1.384       .  A
C1132      C2134   1.439       .  S
C1133      H1135   1.082       .  S
Cu1136     N1139   2.066       .  S
Cu1137     N1147   2.089       .  S
Cu1138     N1140   2.061       .  S
Cu1138     N1146   2.061       .  S
N1139      N1140   1.320       .  A
N1139      C1143   1.345       .  A
N1140      C1141   1.344       .  A
C1141      C1142   1.380       .  A
C1141      H1144   1.082       .  S
C1142      C1143   1.382       .  A
C1142      C2116   1.436       .  S
C1143      H1145   1.082       .  S
N1146      N1147   1.323       .  A
N1146      C1150   1.341       .  A
N1147      C1148   1.349       .  A
C1148      C1149   1.384       .  A
C1148      H1151   1.082       .  S
C1149      C1150   1.376       .  A
C1149      C2120   1.437       .  S
C1150      H1152   1.082       .  S
N1153      N1154   1.323       .  A
N1153      C1157   1.349       .  A
N1153     Cu1161   2.082       .  S
N1154      C1155   1.340       .  A
N1154     Cu1160   2.060       .  S
C1155      C1156   1.374       .  A
C1155      H1158   1.082       .  S
C1156      C1157   1.382       .  A
C1156      C2135   1.434       .  S
C1157      H1159   1.082       .  S
Cu1160     N1163   2.059       .  S
Cu1161     N1171   2.083       .  S
Cu1162     N1164   2.070       .  S
Cu1162     N1170   2.071       .  S
N1163      N1164   1.320       .  A
N1163      C1167   1.343       .  A
N1164      C1165   1.346       .  A
C1165      C1166   1.383       .  A
C1165      H1168   1.082       .  S
C1166      C1167   1.379       .  A
C1166      C2113   1.435       .  S
C1167      H1169   1.082       .  S
N1170      N1171   1.325       .  A
N1170      C1174   1.341       .  A
N1171      C1172   1.349       .  A
C1172      C1173   1.382       .  A
C1172      H1175   1.082       .  S
C1173      C1174   1.375       .  A
C1173      C2123   1.436       .  S
C1174      H1176   1.082       .  S
N1177      C1182   1.355       .  A
N1177      C1181   1.355       .  A
N1177      H1209   1.032       .  S
N1178      C1185   1.352       .  A
N1178      C1186   1.353       .  A
N1179      C1184   1.355       .  A
N1179      C1183   1.354       .  A
N1179      H1210   1.028       .  S
N1180      C1187   1.352       .  A
N1180      C1188   1.352       .  A
C1181      C1189   1.387       .  A
C1181      C1197   1.421       .  A
C1182      C1198   1.421       .  A
C1182      C1190   1.389       .  A
C1183      C1191   1.388       .  A
C1183      C1200   1.422       .  A
C1184      C1199   1.422       .  A
C1184      C1192   1.388       .  A
C1185      C1197   1.417       .  A
C1185      C1193   1.387       .  A
C1186      C1200   1.420       .  A
C1186      C1194   1.388       .  A
C1187      C1195   1.387       .  A
C1187      C1198   1.416       .  A
C1188      C1196   1.389       .  A
C1188      C1199   1.420       .  A
C1189      C1190   1.376       .  A
C1189      H1201   1.082       .  S
C1190      H1202   1.082       .  S
C1191      C1192   1.380       .  A
C1191      H1203   1.082       .  S
C1192      H1204   1.082       .  S
C1193      C1194   1.370       .  A
C1193      H1205   1.082       .  S
C1194      H1206   1.082       .  S
C1195      C1196   1.371       .  A
C1195      H1207   1.082       .  S
C1196      H1208   1.082       .  S
C1197      C2105   1.456       .  S
C1198      C2109   1.454       .  S
C1199      C2131   1.455       .  S
C1200      C2104   1.455       .  S
N1211      C1216   1.354       .  A
N1211      C1215   1.356       .  A
N1211      H1243   1.037       .  S
N1212      C1219   1.351       .  A
N1212      C1220   1.352       .  A
N1213      C1218   1.353       .  A
N1213      C1217   1.352       .  A
N1213      H1244   1.037       .  S
N1214      C1221   1.352       .  A
N1214      C1222   1.352       .  A
C1215      C1223   1.388       .  A
C1215      C1231   1.418       .  A
C1216      C1232   1.418       .  A
C1216      C1224   1.387       .  A
C1217      C1225   1.386       .  A
C1217      C1234   1.411       .  A
C1218      C1233   1.416       .  A
C1218      C1226   1.389       .  A
C1219      C1231   1.412       .  A
C1219      C1227   1.387       .  A
C1220      C1234   1.412       .  A
C1220      C1228   1.387       .  A
C1221      C1229   1.388       .  A
C1221      C1232   1.415       .  A
C1222      C1230   1.386       .  A
C1222      C1233   1.413       .  A
C1223      C1224   1.380       .  A
C1223      H1235   1.082       .  S
C1224      H1236   1.082       .  S
C1225      C1226   1.377       .  A
C1225      H1237   1.082       .  S
C1226      H1238   1.082       .  S
C1227      C1228   1.371       .  A
C1227      H1239   1.082       .  S
C1228      H1240   1.082       .  S
C1229      C1230   1.374       .  A
C1229      H1241   1.082       .  S
C1230      H1242   1.082       .  S
C1231      C2095   1.455       .  S
C1232      C2099   1.455       .  S
C1233      C2165   1.453       .  S
C1234      C2094   1.449       .  S
N1245      C1250   1.353       .  A
N1245      C1249   1.354       .  A
N1245      H1277   1.038       .  S
N1246      C1253   1.353       .  A
N1246      C1254   1.351       .  A
N1247      C1252   1.355       .  A
N1247      C1251   1.355       .  A
N1247      H1278   1.038       .  S
N1248      C1255   1.353       .  A
N1248      C1256   1.354       .  A
C1249      C1257   1.387       .  A
C1249      C1265   1.413       .  A
C1250      C1266   1.416       .  A
C1250      C1258   1.389       .  A
C1251      C1259   1.388       .  A
C1251      C1268   1.417       .  A
C1252      C1267   1.417       .  A
C1252      C1260   1.388       .  A
C1253      C1265   1.413       .  A
C1253      C1261   1.386       .  A
C1254      C1268   1.413       .  A
C1254      C1262   1.387       .  A
C1255      C1263   1.386       .  A
C1255      C1266   1.416       .  A
C1256      C1264   1.387       .  A
C1256      C1267   1.417       .  A
C1257      C1258   1.373       .  A
C1257      H1269   1.082       .  S
C1258      H1270   1.082       .  S
C1259      C1260   1.372       .  A
C1259      H1271   1.082       .  S
C1260      H1272   1.082       .  S
C1261      C1262   1.375       .  A
C1261      H1273   1.082       .  S
C1262      H1274   1.082       .  S
C1263      C1264   1.376       .  A
C1263      H1275   1.082       .  S
C1264      H1276   1.082       .  S
C1265      C2102   1.455       .  S
C1266      C2108   1.455       .  S
C1267      C2091   1.458       .  S
C1268      C2176   1.452       .  S
N1279      C1284   1.354       .  A
N1279      C1283   1.352       .  A
N1279      H1311   1.039       .  S
N1280      C1287   1.352       .  A
N1280      C1288   1.350       .  A
N1281      C1286   1.353       .  A
N1281      C1285   1.354       .  A
N1281      H1312   1.039       .  S
N1282      C1289   1.350       .  A
N1282      C1290   1.350       .  A
C1283      C1291   1.387       .  A
C1283      C1299   1.412       .  A
C1284      C1300   1.414       .  A
C1284      C1292   1.388       .  A
C1285      C1293   1.389       .  A
C1285      C1302   1.415       .  A
C1286      C1301   1.412       .  A
C1286      C1294   1.387       .  A
C1287      C1299   1.413       .  A
C1287      C1295   1.386       .  A
C1288      C1302   1.412       .  A
C1288      C1296   1.386       .  A
C1289      C1297   1.386       .  A
C1289      C1300   1.411       .  A
C1290      C1298   1.387       .  A
C1290      C1301   1.410       .  A
C1291      C1292   1.374       .  A
C1291      H1303   1.082       .  S
C1292      H1304   1.082       .  S
C1293      C1294   1.373       .  A
C1293      H1305   1.082       .  S
C1294      H1306   1.082       .  S
C1295      C1296   1.378       .  A
C1295      H1307   1.082       .  S
C1296      H1308   1.082       .  S
C1297      C1298   1.375       .  A
C1297      H1309   1.082       .  S
C1298      H1310   1.082       .  S
C1299      C2098   1.453       .  S
C1300      C2112   1.452       .  S
C1301      C2121   1.447       .  S
C1302      C2090   1.449       .  S
N1313      C1318   1.357       .  A
N1313      C1317   1.357       .  A
N1313      H1345   1.034       .  S
N1314      C1321   1.352       .  A
N1314      C1322   1.353       .  A
N1315      C1320   1.356       .  A
N1315      C1319   1.357       .  A
N1315      H1346   1.034       .  S
N1316      C1323   1.354       .  A
N1316      C1324   1.354       .  A
C1317      C1325   1.388       .  A
C1317      C1333   1.422       .  A
C1318      C1334   1.423       .  A
C1318      C1326   1.388       .  A
C1319      C1327   1.387       .  A
C1319      C1336   1.420       .  A
C1320      C1335   1.421       .  A
C1320      C1328   1.388       .  A
C1321      C1333   1.417       .  A
C1321      C1329   1.388       .  A
C1322      C1336   1.417       .  A
C1322      C1330   1.387       .  A
C1323      C1331   1.387       .  A
C1323      C1334   1.419       .  A
C1324      C1332   1.387       .  A
C1324      C1335   1.419       .  A
C1325      C1326   1.376       .  A
C1325      H1337   1.082       .  S
C1326      H1338   1.082       .  S
C1327      C1328   1.374       .  A
C1327      H1339   1.082       .  S
C1328      H1340   1.082       .  S
C1329      C1330   1.371       .  A
C1329      H1341   1.082       .  S
C1330      H1342   1.082       .  S
C1331      C1332   1.373       .  A
C1331      H1343   1.082       .  S
C1332      H1344   1.082       .  S
C1333      C2085   1.458       .  S
C1334      C2081   1.461       .  S
C1335      C2330   1.457       .  S
C1336      C2079   1.458       .  S
N1347      C1352   1.354       .  A
N1347      C1351   1.353       .  A
N1347      H1379   1.038       .  S
N1348      C1355   1.351       .  A
N1348      C1356   1.352       .  A
N1349      C1354   1.353       .  A
N1349      C1353   1.355       .  A
N1349      H1380   1.038       .  S
N1350      C1357   1.353       .  A
N1350      C1358   1.351       .  A
C1351      C1359   1.388       .  A
C1351      C1367   1.416       .  A
C1352      C1368   1.416       .  A
C1352      C1360   1.387       .  A
C1353      C1361   1.385       .  A
C1353      C1370   1.414       .  A
C1354      C1369   1.418       .  A
C1354      C1362   1.389       .  A
C1355      C1367   1.412       .  A
C1355      C1363   1.387       .  A
C1356      C1370   1.412       .  A
C1356      C1364   1.387       .  A
C1357      C1365   1.387       .  A
C1357      C1368   1.414       .  A
C1358      C1366   1.387       .  A
C1358      C1369   1.413       .  A
C1359      C1360   1.377       .  A
C1359      H1371   1.082       .  S
C1360      H1372   1.082       .  S
C1361      C1362   1.378       .  A
C1361      H1373   1.082       .  S
C1362      H1374   1.082       .  S
C1363      C1364   1.372       .  A
C1363      H1375   1.082       .  S
C1364      H1376   1.082       .  S
C1365      C1366   1.374       .  A
C1365      H1377   1.082       .  S
C1366      H1378   1.082       .  S
C1367      C2071   1.449       .  S
C1368      C2075   1.456       .  S
C1369      C2069   1.451       .  S
C1370      C2328   1.455       .  S
N1381      C1386   1.356       .  A
N1381      C1385   1.354       .  A
N1381      H1413   1.034       .  S
N1382      C1389   1.354       .  A
N1382      C1390   1.355       .  A
N1383      C1388   1.354       .  A
N1383      C1387   1.356       .  A
N1383      H1414   1.033       .  S
N1384      C1391   1.355       .  A
N1384      C1392   1.353       .  A
C1385      C1393   1.389       .  A
C1385      C1401   1.420       .  A
C1386      C1402   1.418       .  A
C1386      C1394   1.387       .  A
C1387      C1395   1.388       .  A
C1387      C1404   1.420       .  A
C1388      C1403   1.419       .  A
C1388      C1396   1.388       .  A
C1389      C1401   1.419       .  A
C1389      C1397   1.387       .  A
C1390      C1404   1.420       .  A
C1390      C1398   1.387       .  A
C1391      C1399   1.386       .  A
C1391      C1402   1.417       .  A
C1392      C1400   1.389       .  A
C1392      C1403   1.419       .  A
C1393      C1394   1.374       .  A
C1393      H1405   1.082       .  S
C1394      H1406   1.082       .  S
C1395      C1396   1.376       .  A
C1395      H1407   1.082       .  S
C1396      H1408   1.082       .  S
C1397      C1398   1.375       .  A
C1397      H1409   1.082       .  S
C1398      H1410   1.082       .  S
C1399      C1400   1.372       .  A
C1399      H1411   1.082       .  S
C1400      H1412   1.082       .  S
C1401      C2078   1.457       .  S
C1402      C2084   1.460       .  S
C1403      C2336   1.452       .  S
C1404      C2068   1.461       .  S
N1415      C1420   1.356       .  A
N1415      C1419   1.353       .  A
N1415      H1447   1.037       .  S
N1416      C1423   1.350       .  A
N1416      C1424   1.352       .  A
N1417      C1422   1.353       .  A
N1417      C1421   1.355       .  A
N1417      H1448   1.038       .  S
N1418      C1425   1.352       .  A
N1418      C1426   1.350       .  A
C1419      C1427   1.390       .  A
C1419      C1435   1.417       .  A
C1420      C1436   1.414       .  A
C1420      C1428   1.386       .  A
C1421      C1429   1.388       .  A
C1421      C1438   1.414       .  A
C1422      C1437   1.412       .  A
C1422      C1430   1.388       .  A
C1423      C1435   1.414       .  A
C1423      C1431   1.388       .  A
C1424      C1438   1.411       .  A
C1424      C1432   1.385       .  A
C1425      C1433   1.386       .  A
C1425      C1436   1.412       .  A
C1426      C1434   1.387       .  A
C1426      C1437   1.410       .  A
C1427      C1428   1.372       .  A
C1427      H1439   1.082       .  S
C1428      H1440   1.082       .  S
C1429      C1430   1.369       .  A
C1429      H1441   1.082       .  S
C1430      H1442   1.082       .  S
C1431      C1432   1.376       .  A
C1431      H1443   1.082       .  S
C1432      H1444   1.082       .  S
C1433      C1434   1.373       .  A
C1433      H1445   1.082       .  S
C1434      H1446   1.083       .  S
C1435      C2074   1.449       .  S
C1436      C2088   1.456       .  S
C1437      C2065   1.443       .  S
C1438      C2318   1.453       .  S
N1449      N1450   1.324       .  A
N1449      C1453   1.349       .  A
N1449     Cu1457   2.087       .  S
N1450      C1451   1.341       .  A
N1450     Cu1456   2.061       .  S
C1451      C1452   1.375       .  A
C1451      H1454   1.082       .  S
C1452      C1453   1.383       .  A
C1452      C2064   1.435       .  S
C1453      H1455   1.082       .  S
Cu1456     N1459   2.061       .  S
Cu1457     N1467   2.087       .  S
Cu1458     N1460   2.068       .  S
Cu1458     N1466   2.069       .  S
N1459      N1460   1.320       .  A
N1459      C1463   1.344       .  A
N1460      C1461   1.345       .  A
C1461      C1462   1.382       .  A
C1461      H1464   1.082       .  S
C1462      C1463   1.380       .  A
C1462      C2059   1.435       .  S
C1463      H1465   1.082       .  S
N1466      N1467   1.324       .  A
N1466      C1470   1.342       .  A
N1467      C1468   1.350       .  A
C1468      C1469   1.383       .  A
C1468      H1471   1.082       .  S
C1469      C1470   1.376       .  A
C1469      C2055   1.438       .  S
C1470      H1472   1.082       .  S
N1473      N1474   1.325       .  A
N1473      C1477   1.348       .  A
N1473     Cu1481   2.087       .  S
N1474      C1475   1.344       .  A
N1474     Cu1480   2.075       .  S
C1475      C1476   1.378       .  A
C1475      H1478   1.082       .  S
C1476      C1477   1.382       .  A
C1476      C2053   1.439       .  S
C1477      H1479   1.082       .  S
Cu1480     N1483   2.073       .  S
Cu1481     N1491   2.086       .  S
Cu1482     N1484   2.058       .  S
Cu1482     N1490   2.058       .  S
N1483      N1484   1.320       .  A
N1483      C1487   1.345       .  A
N1484      C1485   1.344       .  A
C1485      C1486   1.379       .  A
C1485      H1488   1.082       .  S
C1486      C1487   1.383       .  A
C1486      C2062   1.435       .  S
C1487      H1489   1.082       .  S
N1490      N1491   1.323       .  A
N1490      C1494   1.339       .  A
N1491      C1492   1.351       .  A
C1492      C1493   1.385       .  A
C1492      H1495   1.082       .  S
C1493      C1494   1.374       .  A
C1493      C2049   1.435       .  S
C1494      H1496   1.082       .  S
N1497      N1498   1.323       .  A
N1497      C1501   1.347       .  A
N1497     Cu1505   2.074       .  S
N1498      C1499   1.343       .  A
N1498     Cu1504   2.065       .  S
C1499      C1500   1.378       .  A
C1499      H1502   1.082       .  S
C1500      C1501   1.380       .  A
C1500      C2089   1.436       .  S
C1501      H1503   1.082       .  S
Cu1504     N1507   2.064       .  S
Cu1505     N1515   2.074       .  S
Cu1506     N1508   2.074       .  S
Cu1506     N1514   2.075       .  S
N1507      N1508   1.322       .  A
N1507      C1511   1.344       .  A
N1508      C1509   1.345       .  A
C1509      C1510   1.382       .  A
C1509      H1512   1.082       .  S
C1510      C1511   1.379       .  A
C1510      C2048   1.436       .  S
C1511      H1513   1.082       .  S
N1514      N1515   1.324       .  A
N1514      C1518   1.345       .  A
N1515      C1516   1.346       .  A
C1516      C1517   1.379       .  A
C1516      H1519   1.082       .  S
C1517      C1518   1.380       .  A
C1517      C2052   1.437       .  S
C1518      H1520   1.082       .  S
N1521      N1522   1.325       .  A
N1521      C1525   1.348       .  A
N1521     Cu1529   2.085       .  S
N1522      C1523   1.343       .  A
N1522     Cu1528   2.072       .  S
C1523      C1524   1.376       .  A
C1523      H1526   1.082       .  S
C1524      C1525   1.381       .  A
C1524      C2093   1.436       .  S
C1525      H1527   1.082       .  S
Cu1528     N1531   2.070       .  S
Cu1529     N1539   2.084       .  S
Cu1530     N1532   2.060       .  S
Cu1530     N1538   2.061       .  S
N1531      N1532   1.320       .  A
N1531      C1535   1.345       .  A
N1532      C1533   1.343       .  A
C1533      C1534   1.380       .  A
C1533      H1536   1.082       .  S
C1534      C1535   1.383       .  A
C1534      C2045   1.436       .  S
C1535      H1537   1.082       .  S
N1538      N1539   1.323       .  A
N1538      C1542   1.341       .  A
N1539      C1540   1.350       .  A
C1540      C1541   1.384       .  A
C1540      H1543   1.082       .  S
C1541      C1542   1.375       .  A
C1541      C2058   1.438       .  S
C1542      H1544   1.082       .  S
N1545      N1546   1.325       .  A
N1545      C1549   1.349       .  A
N1545     Cu1553   2.091       .  S
N1546      C1547   1.344       .  A
N1546     Cu1552   2.071       .  S
C1547      C1548   1.377       .  A
C1547      H1550   1.082       .  S
C1548      C1549   1.383       .  A
C1548      C2103   1.441       .  S
C1549      H1551   1.082       .  S
Cu1552     N1555   2.070       .  S
Cu1553     N1563   2.090       .  S
Cu1554     N1556   2.065       .  S
Cu1554     N1562   2.065       .  S
N1555      N1556   1.321       .  A
N1555      C1559   1.345       .  A
N1556      C1557   1.344       .  A
C1557      C1558   1.380       .  A
C1557      H1560   1.082       .  S
C1558      C1559   1.381       .  A
C1558      C2041   1.437       .  S
C1559      H1561   1.082       .  S
N1562      N1563   1.324       .  A
N1562      C1566   1.341       .  A
N1563      C1564   1.351       .  A
C1564      C1565   1.385       .  A
C1564      H1567   1.082       .  S
C1565      C1566   1.376       .  A
C1565      C2037   1.439       .  S
C1566      H1568   1.082       .  S
N1569      N1570   1.324       .  A
N1569      C1573   1.354       .  A
N1569     Cu1577   2.110       .  S
N1570      C1571   1.340       .  A
N1570     Cu1576   2.055       .  S
C1571      C1572   1.373       .  A
C1571      H1574   1.082       .  S
C1572      C1573   1.390       .  A
C1572      C2092   1.443       .  S
C1573      H1575   1.082       .  S
Cu1576     N1579   2.053       .  S
Cu1577     N1587   2.111       .  S
Cu1578     N1580   2.063       .  S
Cu1578     N1586   2.063       .  S
N1579      N1580   1.318       .  A
N1579      C1583   1.341       .  A
N1580      C1581   1.346       .  A
C1581      C1582   1.384       .  A
C1581      H1584   1.082       .  S
C1582      C1583   1.379       .  A
C1582      C2044   1.436       .  S
C1583      H1585   1.082       .  S
N1586      N1587   1.326       .  A
N1586      C1590   1.340       .  A
N1587      C1588   1.353       .  A
C1588      C1589   1.387       .  A
C1588      H1591   1.082       .  S
C1589      C1590   1.374       .  A
C1589      C2033   1.441       .  S
C1590      H1592   1.082       .  S
N1593      N1594   1.325       .  A
N1593      C1597   1.348       .  A
N1593     Cu1601   2.090       .  S
N1594      C1595   1.343       .  A
N1594     Cu1600   2.069       .  S
C1595      C1596   1.376       .  A
C1595      H1598   1.082       .  S
C1596      C1597   1.382       .  A
C1596      C2032   1.437       .  S
C1597      H1599   1.082       .  S
Cu1600     N1603   2.068       .  S
Cu1601     N1611   2.089       .  S
Cu1602     N1604   2.062       .  S
Cu1602     N1610   2.062       .  S
N1603      N1604   1.320       .  A
N1603      C1607   1.345       .  A
N1604      C1605   1.344       .  A
C1605      C1606   1.379       .  A
C1605      H1608   1.082       .  S
C1606      C1607   1.382       .  A
C1606      C2027   1.436       .  S
C1607      H1609   1.082       .  S
N1610      N1611   1.323       .  A
N1610      C1614   1.340       .  A
N1611      C1612   1.351       .  A
C1612      C1613   1.385       .  A
C1612      H1615   1.082       .  S
C1613      C1614   1.375       .  A
C1613      C2040   1.439       .  S
C1614      H1616   1.082       .  S
N1617      N1618   1.324       .  A
N1617      C1621   1.351       .  A
N1617     Cu1625   2.092       .  S
N1618      C1619   1.340       .  A
N1618     Cu1624   2.061       .  S
C1619      C1620   1.374       .  A
C1619      H1622   1.082       .  S
C1620      C1621   1.385       .  A
C1620      C2026   1.437       .  S
C1621      H1623   1.082       .  S
Cu1624     N1627   2.060       .  S
Cu1625     N1635   2.093       .  S
Cu1626     N1628   2.068       .  S
Cu1626     N1634   2.071       .  S
N1627      N1628   1.319       .  A
N1627      C1631   1.343       .  A
N1628      C1629   1.345       .  A
C1629      C1630   1.382       .  A
C1629      H1632   1.082       .  S
C1630      C1631   1.380       .  A
C1630      C2030   1.435       .  S
C1631      H1633   1.082       .  S
N1634      N1635   1.325       .  A
N1634      C1638   1.343       .  A
N1635      C1636   1.350       .  A
C1636      C1637   1.384       .  A
C1636      H1639   1.082       .  S
C1637      C1638   1.377       .  A
C1637      C2036   1.441       .  S
C1638      H1640   1.082       .  S
N1641      N1642   1.323       .  A
N1641      C1645   1.345       .  A
N1641     Cu1649   2.061       .  S
N1642      C1643   1.340       .  A
N1642     Cu1648   2.062       .  S
C1643      C1644   1.375       .  A
C1643      H1646   1.082       .  S
C1644      C1645   1.377       .  A
C1644      C2066   1.427       .  S
C1645      H1647   1.082       .  S
Cu1648     N1651   2.062       .  S
Cu1649     N1659   2.062       .  S
Cu1650     N1652   2.071       .  S
Cu1650     N1658   2.071       .  S
N1651      N1652   1.321       .  A
N1651      C1655   1.344       .  A
N1652      C1653   1.344       .  A
C1653      C1654   1.382       .  A
C1653      H1656   1.082       .  S
C1654      C1655   1.380       .  A
C1654      C2021   1.433       .  S
C1655      H1657   1.082       .  S
N1658      N1659   1.323       .  A
N1658      C1662   1.342       .  A
N1659      C1660   1.345       .  A
C1660      C1661   1.378       .  A
C1660      H1663   1.082       .  S
C1661      C1662   1.378       .  A
C1661      C2017   1.431       .  S
C1662      H1664   1.082       .  S
N1665      N1666   1.327       .  A
N1665      C1669   1.353       .  A
N1665     Cu1673   2.112       .  S
N1666      C1667   1.342       .  A
N1666     Cu1672   2.071       .  S
C1667      C1668   1.374       .  A
C1667      H1670   1.082       .  S
C1668      C1669   1.387       .  A
C1668      C2080   1.443       .  S
C1669      H1671   1.082       .  S
Cu1672     N1675   2.068       .  S
Cu1673     N1683   2.111       .  S
Cu1674     N1676   2.052       .  S
Cu1674     N1682   2.053       .  S
N1675      N1676   1.318       .  A
N1675      C1679   1.345       .  A
N1676      C1677   1.342       .  A
C1677      C1678   1.380       .  A
C1677      H1680   1.082       .  S
C1678      C1679   1.385       .  A
C1678      C2024   1.433       .  S
C1679      H1681   1.082       .  S
N1682      N1683   1.324       .  A
N1682      C1686   1.339       .  A
N1683      C1684   1.355       .  A
C1684      C1685   1.391       .  A
C1684      H1687   1.082       .  S
C1685      C1686   1.372       .  A
C1685      C2016   1.444       .  S
C1686      H1688   1.082       .  S
N1689      N1690   1.323       .  A
N1689      C1693   1.346       .  A
N1689     Cu1697   2.068       .  S
N1690      C1691   1.342       .  A
N1690     Cu1696   2.069       .  S
C1691      C1692   1.377       .  A
C1691      H1694   1.082       .  S
C1692      C1693   1.379       .  A
C1692      C2011   1.432       .  S
C1693      H1695   1.082       .  S
Cu1696     N1699   2.069       .  S
Cu1697     N1707   2.068       .  S
Cu1698     N1700   2.066       .  S
Cu1698     N1706   2.068       .  S
N1699      N1700   1.321       .  A
N1699      C1703   1.345       .  A
N1700      C1701   1.343       .  A
C1701      C1702   1.380       .  A
C1701      H1704   1.082       .  S
C1702      C1703   1.382       .  A
C1702      C2010   1.434       .  S
C1703      H1705   1.082       .  S
N1706      N1707   1.323       .  A
N1706      C1710   1.343       .  A
N1707      C1708   1.345       .  A
C1708      C1709   1.379       .  A
C1708      H1711   1.082       .  S
C1709      C1710   1.378       .  A
C1709      C2020   1.432       .  S
C1710      H1712   1.082       .  S
N1713      N1714   1.324       .  A
N1713      C1717   1.352       .  A
N1713     Cu1721   2.102       .  S
N1714      C1715   1.342       .  A
N1714     Cu1720   2.060       .  S
C1715      C1716   1.375       .  A
C1715      H1718   1.082       .  S
C1716      C1717   1.387       .  A
C1716      C2005   1.442       .  S
C1717      H1719   1.082       .  S
Cu1720     N1723   2.060       .  S
Cu1721     N1731   2.102       .  S
Cu1722     N1724   2.073       .  S
Cu1722     N1730   2.073       .  S
N1723      N1724   1.321       .  A
N1723      C1727   1.345       .  A
N1724      C1725   1.344       .  A
C1725      C1726   1.382       .  A
C1725      H1728   1.082       .  S
C1726      C1727   1.379       .  A
C1726      C2007   1.435       .  S
C1727      H1729   1.082       .  S
N1730      N1731   1.325       .  A
N1730      C1734   1.344       .  A
N1731      C1732   1.352       .  A
C1732      C1733   1.386       .  A
C1732      H1735   1.082       .  S
C1733      C1734   1.378       .  A
C1733      C2013   1.446       .  S
C1734      H1736   1.082       .  S
N1737      C1742   1.354       .  A
N1737      C1741   1.353       .  A
N1737      H1769   1.036       .  S
N1738      C1745   1.350       .  A
N1738      C1746   1.351       .  A
N1739      C1744   1.352       .  A
N1739      C1743   1.356       .  A
N1739      H1770   1.037       .  S
N1740      C1747   1.355       .  A
N1740      C1748   1.353       .  A
C1741      C1749   1.388       .  A
C1741      C1757   1.415       .  A
C1742      C1758   1.415       .  A
C1742      C1750   1.387       .  A
C1743      C1751   1.387       .  A
C1743      C1760   1.417       .  A
C1744      C1759   1.415       .  A
C1744      C1752   1.387       .  A
C1745      C1757   1.412       .  A
C1745      C1753   1.388       .  A
C1746      C1760   1.411       .  A
C1746      C1754   1.386       .  A
C1747      C1755   1.386       .  A
C1747      C1758   1.415       .  A
C1748      C1756   1.388       .  A
C1748      C1759   1.417       .  A
C1749      C1750   1.375       .  A
C1749      H1761   1.082       .  S
C1750      H1762   1.082       .  S
C1751      C1752   1.377       .  A
C1751      H1763   1.082       .  S
C1752      H1764   1.082       .  S
C1753      C1754   1.372       .  A
C1753      H1765   1.082       .  S
C1754      H1766   1.082       .  S
C1755      C1756   1.373       .  A
C1755      H1767   1.082       .  S
C1756      H1768   1.082       .  S
C1757      C2001   1.447       .  S
C1758      C1997   1.457       .  S
C1759      C2031   1.451       .  S
C1760      C2006   1.455       .  S
N1771      C1776   1.353       .  A
N1771      C1775   1.353       .  A
N1771      H1803   1.036       .  S
N1772      C1779   1.352       .  A
N1772      C1780   1.351       .  A
N1773      C1778   1.351       .  A
N1773      C1777   1.352       .  A
N1773      H1804   1.038       .  S
N1774      C1781   1.350       .  A
N1774      C1782   1.350       .  A
C1775      C1783   1.387       .  A
C1775      C1791   1.414       .  A
C1776      C1792   1.415       .  A
C1776      C1784   1.389       .  A
C1777      C1785   1.390       .  A
C1777      C1794   1.414       .  A
C1778      C1793   1.407       .  A
C1778      C1786   1.385       .  A
C1779      C1791   1.414       .  A
C1779      C1787   1.386       .  A
C1780      C1794   1.413       .  A
C1780      C1788   1.387       .  A
C1781      C1789   1.387       .  A
C1781      C1792   1.410       .  A
C1782      C1790   1.387       .  A
C1782      C1793   1.410       .  A
C1783      C1784   1.374       .  A
C1783      H1795   1.082       .  S
C1784      H1796   1.082       .  S
C1785      C1786   1.376       .  A
C1785      H1797   1.082       .  S
C1786      H1798   1.083       .  S
C1787      C1788   1.376       .  A
C1787      H1799   1.082       .  S
C1788      H1800   1.082       .  S
C1789      C1790   1.373       .  A
C1789      H1801   1.082       .  S
C1790      H1802   1.082       .  S
C1791      C1996   1.454       .  S
C1792      C2004   1.447       .  S
C1793      C2012   1.445       .  S
C1794      C2063   1.449       .  S
N1805      C1810   1.355       .  A
N1805      C1809   1.355       .  A
N1805      H1837   1.035       .  S
N1806      C1813   1.353       .  A
N1806      C1814   1.354       .  A
N1807      C1812   1.354       .  A
N1807      C1811   1.353       .  A
N1807      H1838   1.036       .  S
N1808      C1815   1.353       .  A
N1808      C1816   1.352       .  A
C1809      C1817   1.389       .  A
C1809      C1825   1.421       .  A
C1810      C1826   1.418       .  A
C1810      C1818   1.387       .  A
C1811      C1819   1.387       .  A
C1811      C1828   1.415       .  A
C1812      C1827   1.417       .  A
C1812      C1820   1.388       .  A
C1813      C1825   1.417       .  A
C1813      C1821   1.387       .  A
C1814      C1828   1.417       .  A
C1814      C1822   1.386       .  A
C1815      C1823   1.387       .  A
C1815      C1826   1.414       .  A
C1816      C1824   1.388       .  A
C1816      C1827   1.415       .  A
C1817      C1818   1.377       .  A
C1817      H1829   1.082       .  S
C1818      H1830   1.082       .  S
C1819      C1820   1.378       .  A
C1819      H1831   1.082       .  S
C1820      H1832   1.082       .  S
C1821      C1822   1.375       .  A
C1821      H1833   1.082       .  S
C1822      H1834   1.082       .  S
C1823      C1824   1.372       .  A
C1823      H1835   1.082       .  S
C1824      H1836   1.082       .  S
C1825      C1989   1.458       .  S
C1826      C1993   1.456       .  S
C1827      C2054   1.453       .  S
C1828      C1987   1.458       .  S
N1839      C1844   1.357       .  A
N1839      C1843   1.357       .  A
N1839      H1871   1.034       .  S
N1840      C1847   1.353       .  A
N1840      C1848   1.352       .  A
N1841      C1846   1.356       .  A
N1841      C1845   1.355       .  A
N1841      H1872   1.034       .  S
N1842      C1849   1.353       .  A
N1842      C1850   1.353       .  A
C1843      C1851   1.388       .  A
C1843      C1859   1.421       .  A
C1844      C1860   1.422       .  A
C1844      C1852   1.388       .  A
C1845      C1853   1.389       .  A
C1845      C1862   1.420       .  A
C1846      C1861   1.418       .  A
C1846      C1854   1.387       .  A
C1847      C1859   1.417       .  A
C1847      C1855   1.387       .  A
C1848      C1862   1.417       .  A
C1848      C1856   1.388       .  A
C1849      C1857   1.387       .  A
C1849      C1860   1.419       .  A
C1850      C1858   1.388       .  A
C1850      C1861   1.419       .  A
C1851      C1852   1.374       .  A
C1851      H1863   1.082       .  S
C1852      H1864   1.082       .  S
C1853      C1854   1.373       .  A
C1853      H1865   1.082       .  S
C1854      H1866   1.082       .  S
C1855      C1856   1.372       .  A
C1855      H1867   1.082       .  S
C1856      H1868   1.082       .  S
C1857      C1858   1.373       .  A
C1857      H1869   1.082       .  S
C1858      H1870   1.082       .  S
C1859      C2000   1.458       .  S
C1860      C1992   1.460       .  S
C1861      C1985   1.456       .  S
C1862      C2025   1.453       .  S
N1873      N1874   1.324       .  A
N1873      C1877   1.350       .  A
N1873     Cu1881   2.091       .  S
N1874      C1875   1.341       .  A
N1874     Cu1880   2.063       .  S
C1875      C1876   1.375       .  A
C1875      H1878   1.082       .  S
C1876      C1877   1.384       .  A
C1876      C2070   1.437       .  S
C1877      H1879   1.082       .  S
Cu1880     N1883   2.062       .  S
Cu1881     N1891   2.092       .  S
Cu1882     N1884   2.065       .  S
Cu1882     N1890   2.067       .  S
N1883      N1884   1.319       .  A
N1883      C1887   1.344       .  A
N1884      C1885   1.344       .  A
C1885      C1886   1.382       .  A
C1885      H1888   1.082       .  S
C1886      C1887   1.381       .  A
C1886      C1981   1.435       .  S
C1887      H1889   1.082       .  S
N1890      N1891   1.324       .  A
N1890      C1894   1.341       .  A
N1891      C1892   1.351       .  A
C1892      C1893   1.384       .  A
C1892      H1895   1.082       .  S
C1893      C1894   1.375       .  A
C1893      C1977   1.439       .  S
C1894      H1896   1.082       .  S
N1897      N1898   1.326       .  A
N1897      C1901   1.353       .  A
N1897     Cu1905   2.113       .  S
N1898      C1899   1.343       .  A
N1898     Cu1904   2.069       .  S
C1899      C1900   1.375       .  A
C1899      H1902   1.082       .  S
C1900      C1901   1.389       .  A
C1900      C2067   1.447       .  S
C1901      H1903   1.082       .  S
Cu1904     N1907   2.067       .  S
Cu1905     N1915   2.112       .  S
Cu1906     N1908   2.060       .  S
Cu1906     N1914   2.060       .  S
N1907      N1908   1.319       .  A
N1907      C1911   1.345       .  A
N1908      C1909   1.344       .  A
C1909      C1910   1.380       .  A
C1909      H1912   1.082       .  S
C1910      C1911   1.381       .  A
C1910      C1984   1.436       .  S
C1911      H1913   1.082       .  S
N1914      N1915   1.325       .  A
N1914      C1918   1.341       .  A
N1915      C1916   1.354       .  A
C1916      C1917   1.389       .  A
C1916      H1919   1.082       .  S
C1917      C1918   1.374       .  A
C1917      C1973   1.445       .  S
C1918      H1920   1.082       .  S
N1921      N1922   1.325       .  A
N1921      C1925   1.353       .  A
N1921     Cu1929   2.103       .  S
N1922      C1923   1.340       .  A
N1922     Cu1928   2.058       .  S
C1923      C1924   1.372       .  A
C1923      H1926   1.082       .  S
C1924      C1925   1.388       .  A
C1924      C1986   1.440       .  S
C1925      H1927   1.082       .  S
Cu1928     N1931   2.058       .  S
Cu1929     N1939   2.103       .  S
Cu1930     N1932   2.062       .  S
Cu1930     N1938   2.064       .  S
N1931      N1932   1.319       .  A
N1931      C1935   1.345       .  A
N1932      C1933   1.344       .  A
C1933      C1934   1.380       .  A
C1933      H1936   1.082       .  S
C1934      C1935   1.381       .  A
C1934      C1972   1.435       .  S
C1935      H1937   1.082       .  S
N1938      N1939   1.325       .  A
N1938      C1942   1.341       .  A
N1939      C1940   1.352       .  A
C1940      C1941   1.386       .  A
C1940      H1943   1.082       .  S
C1941      C1942   1.374       .  A
C1941      C1980   1.440       .  S
C1942      H1944   1.082       .  S
N1945      N1946   1.325       .  A
N1945      C1949   1.353       .  A
N1945     Cu1953   2.112       .  S
N1946      C1947   1.343       .  A
N1946     Cu1952   2.062       .  S
C1947      C1948   1.375       .  A
C1947      H1950   1.082       .  S
C1948      C1949   1.388       .  A
C1948      C1988   1.446       .  S
C1949      H1951   1.082       .  S
Cu1952     N1955   2.059       .  S
Cu1953     N1963   2.112       .  S
Cu1954     N1956   2.059       .  S
Cu1954     N1962   2.061       .  S
N1955      N1956   1.319       .  A
N1955      C1959   1.343       .  A
N1956      C1957   1.344       .  A
C1957      C1958   1.382       .  A
C1957      H1960   1.082       .  S
C1958      C1959   1.380       .  A
C1958      C1969   1.435       .  S
C1959      H1961   1.082       .  S
N1962      N1963   1.325       .  A
N1962      C1966   1.341       .  A
N1963      C1964   1.354       .  A
C1964      C1965   1.389       .  A
C1964      H1967   1.082       .  S
C1965      C1966   1.374       .  A
C1965      C1976   1.444       .  S
C1966      H1968   1.082       .  S
C1969      C1970   1.204       .  T
C1970      C1971   1.410       .  S
C1971      C1972   1.205       .  T
C1973      C1974   1.211       .  T
C1974      C1975   1.420       .  S
C1975      C1976   1.210       .  T
C1977      C1978   1.207       .  T
C1978      C1979   1.415       .  S
C1979      C1980   1.208       .  T
C1981      C1982   1.204       .  T
C1982      C1983   1.410       .  S
C1983      C1984   1.205       .  T
C1985      C1986   1.209       .  T
C1987      C1988   1.212       .  T
C1989      C1990   1.211       .  T
C1990      C1991   1.420       .  S
C1991      C1992   1.211       .  T
C1993      C1994   1.209       .  T
C1994      C1995   1.416       .  S
C1995      C1996   1.209       .  T
C1997      C1998   1.210       .  T
C1998      C1999   1.418       .  S
C1999      C2000   1.210       .  T
C2001      C2002   1.204       .  T
C2002      C2003   1.408       .  S
C2003      C2004   1.204       .  T
C2005      C2006   1.209       .  T
C2007      C2008   1.204       .  T
C2008      C2009   1.409       .  S
C2009      C2010   1.204       .  T
C2011      C2012   1.204       .  T
C2013      C2014   1.211       .  T
C2014      C2015   1.420   1_455  S
C2015      C2016   1.210       .  T
C2017      C2018   1.202       .  T
C2018      C2019   1.406   1_655  S
C2019      C2020   1.202       .  T
C2021      C2022   1.203       .  T
C2022      C2023   1.407       .  S
C2023      C2024   1.203       .  T
C2025      C2026   1.207       .  T
C2027      C2028   1.205       .  T
C2028      C2029   1.410       .  S
C2029      C2030   1.204       .  T
C2031      C2032   1.206       .  T
C2033      C2034   1.208       .  T
C2034      C2035   1.416   1_565  S
C2035      C2036   1.208       .  T
C2037      C2038   1.207       .  T
C2038      C2039   1.414       .  S
C2039      C2040   1.207   1_565  T
C2041      C2042   1.205       .  T
C2042      C2043   1.411       .  S
C2043      C2044   1.205       .  T
C2045      C2046   1.205       .  T
C2046      C2047   1.411       .  S
C2047      C2048   1.205       .  T
C2049      C2050   1.205       .  T
C2050      C2051   1.411       .  S
C2051      C2052   1.205       .  T
C2053      C2054   1.207       .  T
C2055      C2056   1.206       .  T
C2056      C2057   1.413       .  S
C2057      C2058   1.206       .  T
C2059      C2060   1.204       .  T
C2060      C2061   1.409       .  S
C2061      C2062   1.204       .  T
C2063      C2064   1.205       .  T
C2065      C2066   1.201       .  T
C2067      C2068   1.212       .  T
C2069      C2070   1.206       .  T
C2071      C2072   1.205       .  T
C2072      C2073   1.410       .  S
C2073      C2074   1.205       .  T
C2075      C2076   1.210       .  T
C2076      C2077   1.418       .  S
C2077      C2078   1.210       .  T
C2079      C2080   1.210       .  T
C2081      C2082   1.212       .  T
C2082      C2083   1.421       .  S
C2083      C2084   1.212       .  T
C2085      C2086   1.210       .  T
C2086      C2087   1.417       .  S
C2087      C2088   1.210       .  T
C2089      C2090   1.206       .  T
C2091      C2092   1.211       .  T
C2093      C2094   1.206       .  T
C2095      C2096   1.209       .  T
C2096      C2097   1.416       .  S
C2097      C2098   1.209       .  T
C2099      C2100   1.209       .  T
C2100      C2101   1.417       .  S
C2101      C2102   1.209       .  T
C2103      C2104   1.209       .  T
C2105      C2106   1.209       .  T
C2106      C2107   1.416       .  S
C2107      C2108   1.209       .  T
C2109      C2110   1.208       .  T
C2110      C2111   1.414       .  S
C2111      C2112   1.207       .  T
C2113      C2114   1.205       .  T
C2114      C2115   1.410       .  S
C2115      C2116   1.205       .  T
C2117      C2118   1.205       .  T
C2118      C2119   1.411       .  S
C2119      C2120   1.205       .  T
C2121      C2122   1.204       .  T
C2123      C2124   1.205       .  T
C2124      C2125   1.411       .  S
C2125      C2126   1.205       .  T
C2127      C2128   1.204       .  T
C2128      C2129   1.408       .  S
C2129      C2130   1.204       .  T
C2131      C2132   1.208       .  T
C2133      C2134   1.208       .  T
C2135      C2136   1.205       .  T
C2137      C2138   1.205       .  T
C2138      C2139   1.409       .  S
C2139      C2140   1.205       .  T
C2141      C2142   1.210       .  T
C2142      C2143   1.419       .  S
C2143      C2144   1.210       .  T
C2145      C2146   1.207       .  T
C2146      C2147   1.414       .  S
C2147      C2148   1.207       .  T
C2149      C2150   1.210       .  T
C2150      C2151   1.417       .  S
C2151      C2152   1.210       .  T
C2153      C2154   1.206       .  T
C2155      C2156   1.204       .  T
C2156      C2157   1.409       .  S
C2157      C2158   1.204       .  T
C2159      C2160   1.207       .  T
C2161      C2162   1.207       .  T
C2162      C2163   1.414   1_556  S
C2163      C2164   1.207       .  T
C2165      C2166   1.208       .  T
C2167      C2168   1.208       .  T
C2168      C2169   1.415   1_556  S
C2169      C2170   1.208       .  T
C2171      C2172   1.204       .  T
C2172      C2173   1.410       .  S
C2173      C2174   1.204       .  T
C2175      C2176   1.207       .  T
C2177      C2178   1.204       .  T
C2179      C2180   1.205       .  T
C2180      C2181   1.411       .  S
C2181      C2182   1.205       .  T
C2183      C2184   1.207       .  T
C2185      C2186   1.204       .  T
C2186      C2187   1.409   1_655  S
C2187      C2188   1.204       .  T
C2189      C2190   1.208   1_655  T
C2190      C2191   1.416       .  S
C2191      C2192   1.208       .  T
C2193      C2194   1.205       .  T
C2194      C2195   1.411       .  S
C2195      C2196   1.205       .  T
C2197      C2198   1.203       .  T
C2198      C2199   1.407       .  S
C2199      C2200   1.203       .  T
C2201      C2202   1.207       .  T
C2202      C2203   1.414       .  S
C2203      C2204   1.207       .  T
C2205      C2206   1.206       .  T
C2207      C2208   1.203       .  T
C2208      C2209   1.407       .  S
C2209      C2210   1.202       .  T
C2211      C2212   1.203       .  T
C2212      C2213   1.408       .  S
C2213      C2214   1.204       .  T
C2215      C2216   1.204       .  T
C2217      C2218   1.206       .  T
C2219      C2220   1.206       .  T
C2221      C2222   1.209       .  T
C2223      C2224   1.205       .  T
C2224      C2225   1.410       .  S
C2225      C2226   1.205       .  T
C2227      C2228   1.207       .  T
C2228      C2229   1.413       .  S
C2229      C2230   1.207       .  T
C2231      C2232   1.204       .  T
C2233      C2234   1.210       .  T
C2234      C2235   1.418       .  S
C2235      C2236   1.210       .  T
C2237      C2238   1.204       .  T
C2238      C2239   1.409       .  S
C2239      C2240   1.204       .  T
C2241      C2242   1.208       .  T
C2243      C2244   1.204       .  T
C2244      C2245   1.409       .  S
C2245      C2246   1.204       .  T
C2247      C2248   1.207       .  T
C2249      C2250   1.208       .  T
C2250      C2251   1.415       .  S
C2251      C2252   1.208       .  T
C2253      C2254   1.208       .  T
C2254      C2255   1.416       .  S
C2255      C2256   1.208       .  T
C2257      C2258   1.204       .  T
C2258      C2259   1.409       .  S
C2259      C2260   1.204       .  T
C2261      C2262   1.207       .  T
C2262      C2263   1.413       .  S
C2263      C2264   1.207       .  T
C2265      C2266   1.210       .  T
C2267      C2268   1.210       .  T
C2268      C2269   1.417       .  S
C2269      C2270   1.209       .  T
C2271      C2272   1.208       .  T
C2273      C2274   1.209       .  T
C2274      C2275   1.417       .  S
C2275      C2276   1.209       .  T
C2277      C2278   1.210       .  T
C2278      C2279   1.417       .  S
C2279      C2280   1.210       .  T
C2281      C2282   1.204       .  T
C2283      C2284   1.204       .  T
C2284      C2285   1.409       .  S
C2285      C2286   1.204       .  T
C2287      C2288   1.210       .  T
C2289      C2290   1.207       .  T
C2290      C2291   1.414   1_565  S
C2291      C2292   1.207       .  T
C2293      C2294   1.211       .  T
C2295      C2296   1.204       .  T
C2296      C2297   1.410   1_565  S
C2297      C2298   1.205       .  T
C2299      C2300   1.204       .  T
C2300      C2301   1.408       .  S
C2301      C2302   1.204       .  T
C2303      C2304   1.204       .  T
C2305      C2306   1.209       .  T
C2307      C2308   1.203       .  T
C2308      C2309   1.408       .  S
C2309      C2310   1.203       .  T
C2311      C2312   1.208       .  T
C2313      C2314   1.209   1_556  T
C2314      C2315   1.418       .  S
C2315      C2316   1.209       .  T
C2317      C2318   1.208       .  T
C2319      C2320   1.207       .  T
C2320      C2321   1.414   1_556  S
C2321      C2322   1.207       .  T
C2323      C2324   1.205       .  T
C2324      C2325   1.411       .  S
C2325      C2326   1.205       .  T
C2327      C2328   1.210       .  T
C2329      C2330   1.210       .  T
C2331      C2332   1.205       .  T
C2332      C2333   1.410       .  S
C2333      C2334   1.205       .  T
C2335      C2336   1.207       .  T
C2337      C2338   1.206       .  T
C2338      C2339   1.412       .  S
C2339      C2340   1.206       .  T
C2341      C2342   1.208       .  T
C2343      C2344   1.210       .  T
C2344      C2345   1.420       .  S
C2345      C2346   1.210       .  T
C2347      C2348   1.205       .  T
C2348      C2349   1.411       .  S
C2349      C2350   1.205       .  T
C2351      C2352   1.211       .  T
