geometry optimzed in LAMMPS
_audit_creation_date              2020-12-01 
_audit_creation_method            'lammps2cif' 
_symmetry_space_group_name_H-M    'P1' 
_symmetry_Int_Tables_number       1 
_symmetry_cell_setting            triclinic 
loop_ 
_symmetry_equiv_pos_as_xyz 
  x,y,z 
_cell_length_a                    31.25448724 
_cell_length_b                    31.31317878894204 
_cell_length_c                    26.917576685899935 
_cell_angle_alpha                 91.24394816745172 
_cell_angle_beta                  89.16663341572448 
_cell_angle_gamma                 120.02347552183889 
loop_ 
_atom_site_label 
_atom_site_type_symbol 
_atom_site_fract_x 
_atom_site_fract_y 
_atom_site_fract_z 
_atom_site_charge 
O1          O  0.46746569  0.17188341  0.98502588    -0.71600
O2          O  0.44828615  0.28774113  0.48258206    -0.72600
O3          O  0.45464956  0.22489375  0.41009355    -0.61200
O4          O  0.45369989  0.23251254  0.05694444    -0.69600
O5          O  0.03932041  0.28176144  0.05913883    -0.69100
O6          O  0.04406694  0.28151896  0.40930803    -0.60400
O7          O  0.03501392  0.33914014  0.48788734    -0.72900
O8          O  0.05143848  0.22339388  0.98328914    -0.71700
Cu9        Cu  0.45450086  0.22881366  0.98251679     1.04600
Cu10       Cu  0.04700522  0.28159299  0.48378605     1.04300
C11         C  0.01413112  0.17993342  0.98471314     0.94600
C12         C  0.99150841  0.33305759  0.48532892     0.93800
C13         C  0.00346398  0.25512459  0.38615777     0.85900
C14         C  0.99811947  0.25895494  0.08233836     0.92200
O15         O  0.03901840  0.28453970  0.15956123    -0.71600
O16         O  0.04284109  0.27943544  0.30758378    -0.72600
O17         O  0.04768521  0.22160735  0.22616114    -0.61200
O18         O  0.03299262  0.34188220  0.24051256    -0.69600
O19         O  0.44956890  0.29554842  0.24328130    -0.69100
O20         O  0.44780892  0.16866437  0.22586595    -0.60400
O21         O  0.45093462  0.22810137  0.30861421    -0.72900
O22         O  0.45048130  0.23761724  0.15919513    -0.71700
Cu23       Cu  0.04352055  0.28359594  0.23331189     1.04600
Cu24       Cu  0.44683959  0.23117799  0.23406428     1.04300
C25         C  0.49194613  0.25672987  0.13607717     0.94600
C26         C  0.49248410  0.24980525  0.33122118     0.93800
C27         C  0.48793212  0.16761967  0.22639509     0.85900
C28         C  0.49013133  0.33626970  0.24529547     0.92200
C29         C  0.04848825  0.05307919  0.50858384     0.03700
C30         C  0.04835359  0.50659757  0.51746046     0.03700
C31         C  0.50191286  0.45972337  0.50906480     0.03700
C32         C  0.45748437  0.46091117  0.50191179     0.03700
C33         C  0.45793833  0.50638795  0.50475714     0.03700
C34         C  0.50017559  0.05004660  0.50381052     0.03700
C35         C  0.04666493  0.05659360  0.23898935     0.03700
C36         C  0.04892512  0.51126136  0.24836639     0.03700
C37         C  0.50369633  0.46474564  0.24039188     0.03700
C38         C  0.45873954  0.46446276  0.25085250     0.03700
C39         C  0.45890063  0.50983862  0.25673269     0.03700
C40         C  0.50465832  0.05731990  0.25348530     0.03700
O41         O  0.19042996  0.02922647  0.99298217    -0.71600
O42         O  0.33350950  0.04511447  0.49816712    -0.72600
O43         O  0.26919310  0.03751635  0.41945973    -0.61200
O44         O  0.25446077  0.03483168  0.06954159    -0.69600
O45         O  0.20673854  0.44020781  0.08359002    -0.69100
O46         O  0.22646551  0.44187735  0.43324379    -0.60400
O47         O  0.27618686  0.43646212  0.02019669    -0.72900
O48         O  0.15185866  0.44124011  0.99976936    -0.71700
Cu49       Cu  0.26798704  0.04095540  0.49428050     1.04600
Cu50       Cu  0.21258780  0.43594765  0.00946493     1.04300
C51         C  0.15338632  0.48276063  0.00014845     0.94600
C52         C  0.31754905  0.47663208  0.02228065     0.93800
C53         C  0.24632148  0.48315836  0.41105327     0.85900
C54         C  0.22967803  0.48138830  0.10721425     0.92200
O55         O  0.20127405  0.03554368  0.24766221    -0.71600
O56         O  0.32950566  0.03306474  0.24059107    -0.72600
O57         O  0.26238434  0.03399543  0.16965867    -0.61200
O58         O  0.26872024  0.03631789  0.31799941    -0.69600
O59         O  0.22611197  0.44269735  0.33235102    -0.69100
O60         O  0.21068493  0.44136943  0.18477857    -0.60400
O61         O  0.28264181  0.44210776  0.24790206    -0.72900
O62         O  0.15493051  0.44272484  0.26866741    -0.71700
Cu63       Cu  0.26703224  0.03768192  0.24386748     1.04600
Cu64       Cu  0.21721645  0.43937671  0.25849348     1.04300
C65         C  0.15520510  0.48366855  0.26865857     0.94600
C66         C  0.32363920  0.48286602  0.24777615     0.93800
C67         C  0.23139731  0.48204835  0.16157214     0.85900
C68         C  0.24610924  0.48360525  0.35656949     0.92200
O69         O  0.29098857  0.23472382  0.42311570    -0.71600
O70         O  0.27454918  0.23097574  0.06865926    -0.72600
O71         O  0.21549051  0.16738882  0.99013876    -0.61200
O72         O  0.34389531  0.29124515  0.50921787    -0.69600
O73         O  0.30412217  0.33315407  0.50309755    -0.69100
O74         O  0.17612978  0.20346609  0.49049438    -0.60400
O75         O  0.22861821  0.26674651  0.07366447    -0.72900
O76         O  0.24638073  0.27194148  0.42255591    -0.71700
Cu77       Cu  0.28264910  0.22679299  0.49794140     1.04600
Cu78       Cu  0.23838593  0.27014465  0.49629705     1.04300
C79         C  0.27023319  0.25441072  0.39935063     0.94600
C80         C  0.25175571  0.24795861  0.09463031     0.93800
C81         C  0.17794735  0.16358214  0.48649208     0.85900
C82         C  0.34386848  0.33189320  0.51019187     0.92200
O83         O  0.17766841  0.20699834  0.25417095    -0.71600
O84         O  0.30679456  0.33537109  0.24405691    -0.72600
O85         O  0.23573973  0.26909768  0.17519621    -0.61200
O86         O  0.24821978  0.27404883  0.32317765    -0.69600
O87         O  0.29134125  0.23527165  0.31922748    -0.69100
O88         O  0.27390175  0.22542267  0.16996342    -0.60400
O89         O  0.34630193  0.29314570  0.23539574    -0.72900
O90         O  0.21916314  0.16649051  0.25338350    -0.71700
Cu91       Cu  0.24071111  0.27284459  0.24942302     1.04600
Cu92       Cu  0.28410164  0.22862270  0.24429975     1.04300
C93         C  0.17848550  0.16664853  0.25657748     0.94600
C94         C  0.34657895  0.33400140  0.23644266     0.93800
C95         C  0.25346994  0.24704027  0.14912386     0.85900
C96         C  0.27083968  0.25515164  0.34471111     0.92200
C97         C  0.13243306  0.11956166  0.26390269    -0.15100
C98         C  0.09302907  0.10566920  0.23474618    -0.30200
H99         H  0.13204204  0.09468666  0.29159301     0.14000
H100        H  0.09581726  0.13060785  0.20607270     0.14500
C101        C  0.41163352  0.41741148  0.25957127    -0.15100
C102        C  0.39326185  0.37952897  0.22699297    -0.30200
H103        H  0.39002081  0.41521960  0.29243042     0.14000
H104        H  0.41373141  0.38096232  0.19355572     0.14500
C105        C  0.09772440  0.51245611  0.24595522    -0.15100
C106        C  0.10796592  0.48333857  0.27359650    -0.30200
H107        H  0.12204083  0.03876666  0.19969936     0.14000
H108        H  0.08021763  0.45680853  0.29851163     0.14500
C109        C  0.41130589  0.51025073  0.26533140    -0.15100
C110        C  0.36998701  0.48214206  0.23874129    -0.30200
H111        H  0.41209382  0.04314706  0.28736738     0.14000
H112        H  0.36952222  0.45708954  0.21002332     0.14500
C113        C  0.09397237  0.10254988  0.51171101    -0.15100
C114        C  0.13266689  0.11562779  0.48118757    -0.30800
H115        H  0.08643040  0.12542202  0.04205007     0.14000
H116        H  0.13270135  0.08919656  0.45442744     0.14500
C117        C  0.40995533  0.41517944  0.49064169    -0.15100
C118        C  0.39026475  0.37707428  0.52155143    -0.30200
H119        H  0.40737644  0.38420324  0.05434376     0.14000
H120        H  0.41038648  0.37764004  0.55433290     0.14500
C121        C  0.09624057  0.50770028  0.52500832    -0.15100
C122        C  0.10719226  0.48349015  0.99386681    -0.30200
H123        H  0.11496334  0.03180036  0.04259252     0.14000
H124        H  0.08661341  0.45846699  0.46572512     0.14500
C125        C  0.36946474  0.47856907  0.52278967    -0.15100
C126        C  0.41141844  0.50837500  0.49832863    -0.30200
H127        H  0.39283313  0.02706048  0.04887810     0.14000
H128        H  0.41243301  0.53633317  0.47428525     0.14500
C129        C  0.48468907  0.11931252  0.22316015    -0.15100
C130        C  0.50763276  0.10633703  0.25603034    -0.30200
H131        H  0.45978930  0.09251324  0.19601612     0.14000
H132        H  0.97985689  0.10416398  0.28611329     0.14500
C133        C  0.48803459  0.38087468  0.25810992    -0.15100
C134        C  0.50507550  0.41893674  0.22742393    -0.30200
H135        H  0.46933841  0.38110841  0.29235162     0.14000
H136        H  0.02996360  0.42261285  0.20324590     0.14500
C137        C  0.49449562  0.09475721  0.50550958    -0.15100
C138        C  0.51942435  0.13370310  0.47609400    -0.30200
H139        H  0.46069387  0.09414974  0.02717503     0.14000
H140        H  0.05018336  0.13526114  0.44980598     0.14500
C141        C  0.48023093  0.37447617  0.48008980    -0.15100
C142        C  0.50181708  0.41199460  0.51315991    -0.30200
H143        H  0.96387475  0.37756764  0.45112494     0.14000
H144        H  0.52828640  0.41071759  0.04572882     0.14500
O145        O  0.46783784  0.16967894  0.48449394    -0.71600
O146        O  0.44792391  0.28966980  0.98003650    -0.72600
O147        O  0.46028783  0.22808867  0.90846407    -0.61200
O148        O  0.45913852  0.23124583  0.55844765    -0.69600
O149        O  0.04372597  0.27769546  0.55844485    -0.69100
O150        O  0.04213523  0.28045712  0.91012067    -0.60400
O151        O  0.03044783  0.33970715  0.98610209    -0.72900
O152        O  0.05369721  0.22097256  0.47879584    -0.71700
Cu153      Cu  0.45462311  0.22663798  0.48419095     1.04600
Cu154      Cu  0.04366720  0.28315032  0.98472658     1.04300
C155        C  0.01604796  0.17765581  0.47971889     0.94600
C156        C  0.98667787  0.33298630  0.98406469     0.93800
C157        C  0.00222679  0.25242501  0.88654390     0.85900
C158        C  0.00269561  0.25427987  0.58189249     0.92200
O159        O  0.04333754  0.27754451  0.65970280    -0.71600
O160        O  0.04367238  0.27343063  0.80852163    -0.72600
O161        O  0.05163281  0.21531346  0.72841239    -0.61200
O162        O  0.03483515  0.33455201  0.73934973    -0.69600
O163        O  0.45180521  0.28563755  0.74128338    -0.69100
O164        O  0.46944268  0.16763976  0.72909276    -0.60400
O165        O  0.46157424  0.22481271  0.80818261    -0.72900
O166        O  0.46049363  0.22995619  0.65953621    -0.71700
Cu167      Cu  0.04627236  0.27684213  0.73388006     1.04600
Cu168      Cu  0.45803334  0.22523023  0.73424067     1.04300
C169        C  0.50101562  0.25473240  0.63555770     0.94600
C170        C  0.50224857  0.25050146  0.83134661     0.93800
C171        C  0.51280165  0.17328140  0.72650622     0.85900
C172        C  0.48969994  0.32870283  0.74374063     0.92200
C173        C  0.04103852  0.05055721  0.00817592     0.03700
C174        C  0.04438911  0.50568723  0.02179810     0.03700
C175        C  0.50017541  0.45952736  0.02074519     0.03700
C176        C  0.45381311  0.45751418  0.02064843     0.03700
C177        C  0.45185669  0.50202393  0.01966348     0.03700
C178        C  0.49348673  0.04842556  0.00244976     0.03700
C179        C  0.04532878  0.04622448  0.74976951     0.03700
C180        C  0.04793108  0.50163442  0.74340037     0.03700
C181        C  0.50272613  0.45715314  0.74056773     0.03700
C182        C  0.45809478  0.45791138  0.75039535     0.03700
C183        C  0.45959447  0.50415332  0.75552422     0.03700
C184        C  0.49915215  0.04689828  0.75592552     0.03700
O185        O  0.19995116  0.03163855  0.49231871    -0.71600
O186        O  0.32518461  0.04449821  0.99933425    -0.72600
O187        O  0.26157677  0.03838741  0.92027321    -0.61200
O188        O  0.26452864  0.03815742  0.56826071    -0.69600
O189        O  0.21298574  0.43834476  0.58180578    -0.69100
O190        O  0.22191263  0.43744081  0.93502439    -0.60400
O191        O  0.28284064  0.43944286  0.51454648    -0.72900
O192        O  0.15646802  0.44110851  0.50056432    -0.71700
Cu193      Cu  0.25903504  0.03958826  0.99539251     1.04600
Cu194      Cu  0.21820258  0.43732388  0.50739174     1.04300
C195        C  0.15695077  0.48210825  0.50250319     0.94600
C196        C  0.32381203  0.48004980  0.51574820     0.93800
C197        C  0.24294525  0.47809218  0.91161516     0.85900
C198        C  0.23495050  0.47880507  0.60669605     0.92200
O199        O  0.19646026  0.02890313  0.74292303    -0.71600
O200        O  0.33322058  0.04925363  0.74180673    -0.72600
O201        O  0.26432255  0.03830293  0.66894278    -0.61200
O202        O  0.26467901  0.03943254  0.81795807    -0.69600
O203        O  0.22474975  0.43673814  0.83269770    -0.69100
O204        O  0.21453287  0.43691053  0.68362738    -0.60400
O205        O  0.28422908  0.43780026  0.74973987    -0.72900
O206        O  0.15538666  0.43578230  0.76538562    -0.71700
Cu207      Cu  0.26581142  0.04180420  0.74319562     1.04600
Cu208      Cu  0.21839067  0.43392095  0.75796280     1.04300
C209        C  0.15491377  0.47628851  0.76477242     0.94600
C210        C  0.32495332  0.47875332  0.74983674     0.93800
C211        C  0.23546443  0.47803762  0.66108587     0.85900
C212        C  0.24382564  0.47769881  0.85692621     0.92200
O213        O  0.27659175  0.23934017  0.92075993    -0.71600
O214        O  0.27065749  0.22236395  0.57224865    -0.72600
O215        O  0.21907084  0.16440953  0.48721157    -0.61200
O216        O  0.33486026  0.30348026  0.99790580    -0.69600
O217        O  0.28559039  0.33567282  0.99780187    -0.69100
O218        O  0.16674371  0.19982827  0.99864167    -0.60400
O219        O  0.23280450  0.26633711  0.57013945    -0.72900
O220        O  0.22558255  0.26946297  0.92385462    -0.71700
Cu221      Cu  0.27701490  0.23413783  0.99437699     1.04600
Cu222      Cu  0.22479096  0.26900841  0.99887032     1.04300
C223        C  0.25199963  0.25585631  0.89894715     0.94600
C224        C  0.24977197  0.24371580  0.59459327     0.93800
C225        C  0.17235007  0.16225903  0.99340637     0.85900
C226        C  0.32874321  0.34088033  0.99675128     0.92200
O227        O  0.16655266  0.21888974  0.75305362    -0.71600
O228        O  0.30339633  0.33586792  0.74190341    -0.72600
O229        O  0.23203121  0.27061804  0.67175074    -0.61200
O230        O  0.23729620  0.28173006  0.82151762    -0.69600
O231        O  0.27055006  0.23345555  0.82086220    -0.69100
O232        O  0.26293222  0.22037352  0.67325586    -0.60400
O233        O  0.33514479  0.28628947  0.73982071    -0.72900
O234        O  0.19782449  0.16888904  0.75321543    -0.71700
Cu235      Cu  0.23376288  0.27862443  0.74682652     1.04600
Cu236      Cu  0.26771906  0.22558172  0.74694254     1.04300
C237        C  0.16082515  0.17578535  0.75650958     0.94600
C238        C  0.34062891  0.32951358  0.73793505     0.93800
C239        C  0.24741462  0.24439471  0.64904754     0.85900
C240        C  0.25356683  0.25755321  0.84460625     0.92200
C241        C  0.11112776  0.13399805  0.76615056    -0.15100
C242        C  0.09359443  0.09191124  0.73972416    -0.30200
H243        H  0.08885055  0.13825338  0.79497310     0.14000
H244        H  0.11749446  0.08921669  0.71156367     0.14500
C245        C  0.41012683  0.41152192  0.75997701    -0.15100
C246        C  0.39011404  0.37222642  0.72887805    -0.30200
H247        H  0.38859866  0.41140781  0.79212490     0.14000
H248        H  0.41001729  0.37124627  0.69591232     0.14500
C249        C  0.09625366  0.50261200  0.73911012    -0.15100
C250        C  0.10713380  0.47471389  0.76785599    -0.30200
H251        H  0.12022276  0.03147095  0.78367234     0.14000
H252        H  0.07962592  0.44861403  0.79325005     0.14500
C253        C  0.41328618  0.50647124  0.76513057    -0.15100
C254        C  0.37107766  0.47803739  0.74010459    -0.30200
H255        H  0.38297964  0.97884077  0.80276585     0.14000
H256        H  0.36946589  0.45193823  0.71192841     0.14500
C257        C  0.08754453  0.09885511  0.01620994    -0.15100
C258        C  0.12882717  0.11249671  0.98920951    -0.30800
H259        H  0.09460102  0.12946851  0.53832285     0.14000
H260        H  0.13076387  0.08694239  0.96268473     0.14500
C261        C  0.40846120  0.40820885  0.02514732    -0.15100
C262        C  0.37159205  0.39057418  0.99224505    -0.30200
H263        H  0.38939087  0.41432033  0.45805714     0.14000
H264        H  0.37197330  0.41351845  0.96237664     0.14500
C265        C  0.09323902  0.50796303  0.02574106    -0.15100
C266        C  0.11043998  0.48187667  0.49544267    -0.30200
H267        H  0.12798525  0.04064378  0.53898046     0.14000
H268        H  0.08259741  0.46056043  0.96435970     0.14500
C269        C  0.36229164  0.47479485  0.03444217    -0.15100
C270        C  0.40496868  0.50248677  0.01034163    -0.30200
H271        H  0.40038881  0.02926177  0.54915051     0.14000
H272        H  0.40638402  0.52826701  0.98303865     0.14500
C273        C  0.51864686  0.12946089  0.72315207    -0.15100
C274        C  0.49710124  0.09370343  0.75698216    -0.30200
H275        H  0.54172936  0.12735593  0.69379666     0.14000
H276        H  0.97490430  0.09610764  0.78629765     0.14500
C277        C  0.48297554  0.37089173  0.75549759    -0.15100
C278        C  0.50330057  0.41095587  0.72721203    -0.30200
H279        H  0.46143717  0.36894525  0.78822347     0.14000
H280        H  0.02671032  0.41230082  0.69698453     0.14500
C281        C  0.48933978  0.09413021  0.00418065    -0.15100
C282        C  0.51878233  0.13545343  0.97925598    -0.30200
H283        H  0.46918841  0.09616897  0.53246317     0.14000
H284        H  0.05236692  0.14056223  0.95923340     0.14500
C285        C  0.47862641  0.37608650  0.98685612    -0.15100
C286        C  0.50282006  0.41297766  0.02030899    -0.30200
H287        H  0.95378389  0.37665542  0.95897940     0.14000
H288        H  0.52363839  0.40919952  0.54266218     0.14500
O289        O  0.46939520  0.67195587  0.00402582    -0.71600
O290        O  0.46475240  0.79650988  0.49393157    -0.72600
O291        O  0.47230335  0.73275052  0.42439933    -0.61200
O292        O  0.46031524  0.73705669  0.07339424    -0.69600
O293        O  0.04174149  0.78597881  0.06842831    -0.69100
O294        O  0.04982819  0.78452369  0.42137209    -0.60400
O295        O  0.03735044  0.84149024  0.49880513    -0.72900
O296        O  0.05019041  0.72196640  0.99675130    -0.71700
Cu297      Cu  0.45815410  0.72989131  0.99883667     1.04600
Cu298      Cu  0.05132139  0.78510970  0.49626295     1.04300
C299        C  0.01306909  0.67842955  0.00016965     0.94600
C300        C  0.99341413  0.83420087  0.49513554     0.93800
C301        C  0.00985782  0.75737085  0.39749615     0.85900
C302        C  0.00161432  0.76323436  0.09327545     0.92200
O303        O  0.04500594  0.78923240  0.16971043    -0.71600
O304        O  0.04989495  0.78255920  0.31865280    -0.72600
O305        O  0.05579996  0.72637340  0.23543670    -0.61200
O306        O  0.03958304  0.84558582  0.25163663    -0.69600
O307        O  0.45407292  0.79359573  0.25905007    -0.69100
O308        O  0.47609680  0.67801218  0.24341310    -0.60400
O309        O  0.46922690  0.73342089  0.32437589    -0.72900
O310        O  0.46201689  0.73830353  0.17583665    -0.71700
Cu311      Cu  0.05049372  0.78768881  0.24379333     1.04600
Cu312      Cu  0.46250743  0.73410510  0.25066437     1.04300
C313        C  0.50190584  0.76348653  0.15100993     0.94600
C314        C  0.51083312  0.75856897  0.34614121     0.93800
C315        C  0.51984343  0.68500124  0.23841692     0.85900
C316        C  0.49109433  0.83735602  0.25985620     0.92200
C317        C  0.04765377  0.55170361  0.51801951     0.03700
C318        C  0.05101541  0.00906092  0.51130450     0.03700
C319        C  0.50799079  0.96383008  0.50970595     0.03700
C320        C  0.46101932  0.95955203  0.50315988     0.03700
C321        C  0.45762049  0.00265982  0.49840284     0.03700
C322        C  0.50280568  0.55097656  0.51285146     0.03700
C323        C  0.04827982  0.55624458  0.25199718     0.03700
C324        C  0.04884032  0.01245239  0.23679774     0.03700
C325        C  0.50211442  0.96533347  0.24910425     0.03700
C326        C  0.45755249  0.96678055  0.25757383     0.03700
C327        C  0.45892838  0.01296844  0.25782588     0.03700
C328        C  0.50420704  0.55539010  0.25285257     0.03700
O329        O  0.19434264  0.52309206  0.00520350    -0.71600
O330        O  0.32514162  0.52134059  0.51239355    -0.72600
O331        O  0.26452213  0.52373773  0.43578975    -0.61200
O332        O  0.25331835  0.52191019  0.08399152    -0.69600
O333        O  0.22012430  0.95324596  0.06634446    -0.69100
O334        O  0.23511881  0.95592478  0.41834006    -0.60400
O335        O  0.29226362  0.96299854  0.99578895    -0.72900
O336        O  0.15706242  0.94779065  0.98740049    -0.71700
Cu337      Cu  0.26270324  0.52492957  0.51048503     1.04600
Cu338      Cu  0.22340478  0.95239948  0.99151129     1.04300
C339        C  0.15257904  0.98615049  0.98913781     0.94600
C340        C  0.32970690  0.00625560  0.00062386     0.93800
C341        C  0.25218008  0.99653725  0.39548695     0.85900
C342        C  0.23714401  0.99357680  0.09139296     0.92200
O343        O  0.19580711  0.52446127  0.26450351    -0.71600
O344        O  0.32448665  0.52388580  0.25383546    -0.72600
O345        O  0.25554878  0.52318592  0.18504028    -0.61200
O346        O  0.26405149  0.52454915  0.33393779    -0.69600
O347        O  0.23028305  0.95441929  0.31750846    -0.69100
O348        O  0.21763040  0.95217552  0.16876648    -0.60400
O349        O  0.28648611  0.95124480  0.23520865    -0.72900
O350        O  0.16073156  0.95373706  0.25175338    -0.71700
Cu351      Cu  0.26148602  0.52692950  0.25942533     1.04600
Cu352      Cu  0.22232014  0.95006462  0.24323148     1.04300
C353        C  0.16090132  0.99452187  0.25212764     0.94600
C354        C  0.32778576  0.99140501  0.23657792     0.93800
C355        C  0.23867793  0.99308857  0.14581267     0.85900
C356        C  0.25070350  0.99574951  0.34113135     0.92200
O357        O  0.28209644  0.74735406  0.43903495    -0.71600
O358        O  0.26676006  0.73851537  0.09001413    -0.72600
O359        O  0.21379239  0.67193507  0.01081371    -0.61200
O360        O  0.33792656  0.81019882  0.51880806    -0.69600
O361        O  0.28755005  0.84087202  0.52559354    -0.69100
O362        O  0.17088868  0.70294602  0.51194706    -0.60400
O363        O  0.21702568  0.77013348  0.09057006    -0.72900
O364        O  0.23255784  0.77910761  0.44378764    -0.71700
Cu365      Cu  0.28166083  0.74048842  0.51305675     1.04600
Cu366      Cu  0.22752212  0.77311705  0.51837776     1.04300
C367        C  0.25809187  0.76504395  0.41801078     0.94600
C368        C  0.24140610  0.75415007  0.11372684     0.93800
C369        C  0.17801892  0.66620150  0.50751389     0.85900
C370        C  0.33116629  0.84708176  0.52400441     0.92200
O371        O  0.16607210  0.72780626  0.27558589    -0.71600
O372        O  0.30289031  0.84524893  0.25995455    -0.72600
O373        O  0.22726073  0.78074380  0.19283131    -0.61200
O374        O  0.24070755  0.79097186  0.34209297    -0.69600
O375        O  0.27361098  0.74243591  0.33804967    -0.69100
O376        O  0.25940479  0.73149678  0.19028573    -0.60400
O377        O  0.33419433  0.79533378  0.25482006    -0.72900
O378        O  0.19826385  0.67861652  0.27122920    -0.71700
Cu379      Cu  0.23318611  0.78808996  0.26773841     1.04600
Cu380      Cu  0.26745293  0.73531459  0.26373704     1.04300
C381        C  0.16089738  0.68471159  0.27587216     0.94600
C382        C  0.33973778  0.83851836  0.25337768     0.93800
C383        C  0.24204692  0.75509860  0.16815909     0.85900
C384        C  0.25806242  0.76688473  0.36353192     0.92200
C385        C  0.11131316  0.64134638  0.28097024    -0.15100
C386        C  0.09657129  0.60323787  0.24890050    -0.30200
H387        H  0.08685372  0.64120028  0.31008235     0.14000
H388        H  0.12202067  0.60609424  0.21954374     0.14500
C389        C  0.40944408  0.92180465  0.26972347    -0.15100
C390        C  0.38891341  0.88042453  0.24177298    -0.30200
H391        H  0.38823307  0.92456066  0.30074153     0.14000
H392        H  0.40852821  0.87671972  0.20991251     0.14500
C393        C  0.09782915  0.01561875  0.22907471    -0.15100
C394        C  0.11372073  0.99321058  0.25958590    -0.30200
H395        H  0.12614406  0.53789616  0.22088365     0.14000
H396        H  0.08999578  0.97046326  0.28937828     0.14500
C397        C  0.41261055  0.01585848  0.26209168    -0.15100
C398        C  0.37331012  0.98859406  0.23289002    -0.30200
H399        H  0.41009031  0.53453507  0.29393519     0.14000
H400        H  0.37341518  0.96143869  0.20719146     0.14500
C401        C  0.09358534  0.60012192  0.52796088    -0.15100
C402        C  0.13566326  0.61567942  0.50174969    -0.30800
H403        H  0.08545353  0.62364092  0.06068489     0.14000
H404        H  0.13915480  0.59121000  0.47496306     0.14500
C405        C  0.41547351  0.90958146  0.50138692    -0.15100
C406        C  0.37420060  0.89732686  0.52781725    -0.30200
H407        H  0.40463650  0.88015884  0.97174072     0.14000
H408        H  0.37152762  0.92435715  0.55152277     0.14500
C409        C  0.10033609  0.01239924  0.51474289    -0.15100
C410        C  0.10326736  0.98056638  0.98539334    -0.30200
H411        H  0.11850094  0.53097836  0.05485747     0.14000
H412        H  0.08606035  0.95569002  0.46206313     0.14500
C413        C  0.38548187  0.01277149  0.51309418    -0.15100
C414        C  0.40981297  0.99762919  0.48318046    -0.30200
H415        H  0.35939648  0.44915334  0.06253849     0.14000
H416        H  0.39309125  0.97826618  0.44856400     0.14500
C417        C  0.52693743  0.64216138  0.23106283    -0.15100
C418        C  0.50322471  0.60253267  0.26015299    -0.30200
H419        H  0.55086117  0.64312904  0.20104567     0.14000
H420        H  0.97672909  0.60492783  0.28907398     0.14500
C421        C  0.48304270  0.87946693  0.26913910    -0.15100
C422        C  0.50244261  0.91828426  0.23883734    -0.30200
H423        H  0.46143692  0.87858581  0.30143898     0.14000
H424        H  0.03019604  0.91928242  0.20303928     0.14500
C425        C  0.50046613  0.59740422  0.51901371    -0.15100
C426        C  0.52999625  0.63893395  0.49446096    -0.30200
H427        H  0.46300515  0.59301088  0.05013851     0.14000
H428        H  0.06031772  0.64223259  0.47000795     0.14500
C429        C  0.49793750  0.88252488  0.48615596    -0.15100
C430        C  0.51202127  0.91929732  0.51970782    -0.30200
H431        H  0.95802592  0.87375000  0.46580776     0.14000
H432        H  0.51618200  0.91218959  0.05130061     0.14500
O433        O  0.48006789  0.67674162  0.50150775    -0.71600
O434        O  0.45328710  0.79142964  0.99254657    -0.72600
O435        O  0.46124639  0.72593362  0.92446183    -0.61200
O436        O  0.47084629  0.74017945  0.57264975    -0.69600
O437        O  0.04718913  0.78173320  0.57111185    -0.69100
O438        O  0.03734078  0.77412496  0.92024404    -0.60400
O439        O  0.02846777  0.83836937  0.99072117    -0.72900
O440        O  0.05920701  0.72517401  0.49315000    -0.71700
Cu441      Cu  0.46915949  0.73485529  0.49837641     1.04600
Cu442      Cu  0.04224658  0.78192655  0.99405556     1.04300
C443        C  0.02183097  0.68166248  0.49451831     0.94600
C444        C  0.98445971  0.83107120  0.98810513     0.93800
C445        C  0.99656743  0.74642288  0.89794876     0.85900
C446        C  0.00574009  0.75819764  0.59378446     0.92200
O447        O  0.04381572  0.77081326  0.67289172    -0.71600
O448        O  0.03776363  0.75991602  0.82102635    -0.72600
O449        O  0.02918443  0.69572687  0.74115575    -0.61200
O450        O  0.05160953  0.83356778  0.75594888    -0.69600
O451        O  0.47400276  0.80594501  0.75604463    -0.69100
O452        O  0.45470224  0.67009009  0.73985437    -0.60400
O453        O  0.46235187  0.73242572  0.82240741    -0.72900
O454        O  0.46813253  0.74431780  0.67363153    -0.71700
Cu455      Cu  0.04340140  0.76593705  0.74754205     1.04600
Cu456      Cu  0.46200624  0.73711470  0.74782377     1.04300
C457        C  0.50975826  0.76149278  0.65128257     0.94600
C458        C  0.50255812  0.74809108  0.84658238     0.93800
C459        C  0.49198455  0.66383395  0.73943602     0.85900
C460        C  0.51727257  0.84295398  0.76222605     0.92200
C461        C  0.04208523  0.54992047  0.02440294     0.03700
C462        C  0.04117295  0.00523134  0.00848094     0.03700
C463        C  0.49726314  0.95973824  0.00716856     0.03700
C464        C  0.45148055  0.95756040  0.99912142     0.03700
C465        C  0.44992875  0.00184573  0.99541481     0.03700
C466        C  0.49615607  0.54825466  0.02288535     0.03700
C467        C  0.04763662  0.54661843  0.74798456     0.03700
C468        C  0.04598403  0.00129795  0.75124100     0.03700
C469        C  0.49997320  0.95642046  0.75787764     0.03700
C470        C  0.45516935  0.95662917  0.76500573     0.03700
C471        C  0.45468002  0.00169291  0.76445581     0.03700
C472        C  0.50572155  0.54882988  0.75278278     0.03700
O473        O  0.19731792  0.52283249  0.50856950    -0.71600
O474        O  0.32010807  0.51813796  0.01552008    -0.72600
O475        O  0.26161323  0.51932225  0.93526077    -0.61200
O476        O  0.25798976  0.52015238  0.58472509    -0.69600
O477        O  0.23087698  0.95657602  0.56672346    -0.69100
O478        O  0.22903655  0.95702839  0.91735800    -0.60400
O479        O  0.30016031  0.96350248  0.49542244    -0.72900
O480        O  0.16559858  0.95000505  0.48950103    -0.71700
Cu481      Cu  0.25882816  0.52348769  0.00981655     1.04600
Cu482      Cu  0.23166967  0.95359152  0.49232951     1.04300
C483        C  0.16172055  0.98875695  0.49007451     0.94600
C484        C  0.33763912  0.00671863  0.50022711     0.93800
C485        C  0.24607136  0.99812478  0.89530831     0.85900
C486        C  0.24818655  0.99742840  0.59081179     0.92200
O487        O  0.19520672  0.51759062  0.76212243    -0.71600
O488        O  0.32542955  0.51959524  0.75594540    -0.72600
O489        O  0.25827190  0.51879515  0.68533524    -0.61200
O490        O  0.26206870  0.51853101  0.83407203    -0.69600
O491        O  0.23050974  0.95787688  0.81640912    -0.69100
O492        O  0.23642557  0.95758948  0.66764963    -0.60400
O493        O  0.30253160  0.96819200  0.74507895    -0.72900
O494        O  0.16535510  0.94775319  0.73703243    -0.71700
Cu495      Cu  0.26169312  0.52149563  0.75958759     1.04600
Cu496      Cu  0.23265968  0.95494607  0.74179968     1.04300
C497        C  0.15967766  0.98538304  0.73726398     0.94600
C498        C  0.33941633  0.01202570  0.74306606     0.93800
C499        C  0.24970809  0.99774715  0.64497255     0.85900
C500        C  0.24725783  0.99861025  0.84070286     0.92200
O501        O  0.27496357  0.74275998  0.94163584    -0.71600
O502        O  0.27769793  0.73577146  0.58795687    -0.72600
O503        O  0.22177179  0.67278065  0.50679596    -0.61200
O504        O  0.32850212  0.80958542  0.01918762    -0.69600
O505        O  0.27773881  0.84000853  0.01942529    -0.69100
O506        O  0.16222412  0.70143604  0.01355746    -0.60400
O507        O  0.22634934  0.76544980  0.59174908    -0.72900
O508        O  0.22287998  0.77157519  0.94114127    -0.71700
Cu509      Cu  0.27277735  0.73970971  0.01560819     1.04600
Cu510      Cu  0.21807291  0.77181357  0.01607609     1.04300
C511        C  0.24963214  0.75726399  0.91794505     0.94600
C512        C  0.25128016  0.74909448  0.61323051     0.93800
C513        C  0.16999631  0.66505602  0.01064937     0.85900
C514        C  0.32141103  0.84639334  0.02026537     0.92200
O515        O  0.16770444  0.69573079  0.76692002    -0.71600
O516        O  0.28053475  0.83472529  0.76101441    -0.72600
O517        O  0.22335233  0.76154686  0.69092035    -0.61200
O518        O  0.22448920  0.76945955  0.83920706    -0.69600
O519        O  0.27708958  0.74131987  0.84087305    -0.69100
O520        O  0.27630976  0.73379627  0.69125495    -0.60400
O521        O  0.33323715  0.80673554  0.76391802    -0.72900
O522        O  0.22036961  0.66768267  0.76940578    -0.71700
Cu523      Cu  0.22215428  0.76626335  0.76463629     1.04600
Cu524      Cu  0.27863024  0.73636545  0.76646567     1.04300
C525        C  0.17621736  0.65989751  0.76886261     0.94600
C526        C  0.32467785  0.84241215  0.76050910     0.93800
C527        C  0.25009114  0.74747548  0.66763797     0.85900
C528        C  0.25065268  0.75629675  0.86348607     0.92200
C529        C  0.13460030  0.60907662  0.77080381    -0.15100
C530        C  0.09398738  0.59532917  0.74358592    -0.30200
H531        H  0.13728190  0.58331022  0.79508806     0.14000
H532        H  0.09290822  0.62254484  0.72000042     0.14500
C533        C  0.40965661  0.90844632  0.77574227    -0.15100
C534        C  0.36597668  0.89271684  0.75361053    -0.30200
H535        H  0.41360149  0.88318104  0.79984275     0.14000
H536        H  0.36061375  0.91602623  0.72821238     0.14500
C537        C  0.09487254  0.00448415  0.75681108    -0.15100
C538        C  0.11040877  0.97870477  0.72944048    -0.30200
H539        H  0.12430463  0.52870231  0.71404753     0.14000
H540        H  0.08683276  0.95209151  0.70149334     0.14500
C541        C  0.40683397  0.00059195  0.77249679    -0.15100
C542        C  0.38965415  0.01992456  0.73967610    -0.30200
H543        H  0.41444796  0.53323527  0.79230656     0.14000
H544        H  0.41240988  0.04107805  0.70863058     0.14500
C545        C  0.08743439  0.59856210  0.03339892    -0.15100
C546        C  0.12830800  0.61461698  0.00539159    -0.30800
H547        H  0.09115343  0.62560378  0.55431172     0.14000
H548        H  0.13119647  0.59076152  0.97732813     0.14500
C549        C  0.40514886  0.90844766  0.99592838    -0.15100
C550        C  0.36422279  0.89667684  0.02270463    -0.30200
H551        H  0.41524747  0.88146552  0.47724642     0.14000
H552        H  0.36212148  0.92373498  0.04687906     0.14500
C553        C  0.08910660  0.00630839  0.01516418    -0.15100
C554        C  0.11261341  0.98379794  0.48708702    -0.30200
H555        H  0.12104004  0.53166656  0.55395552     0.14000
H556        H  0.07849104  0.95512644  0.95735217     0.14500
C557        C  0.37800524  0.01234000  0.01227031    -0.15100
C558        C  0.40268547  0.99878624  0.98074077    -0.30200
H559        H  0.36787189  0.45120906  0.54795217     0.14000
H560        H  0.38612309  0.98120468  0.94541759     0.14500
C561        C  0.48361503  0.61327448  0.73390278    -0.15100
C562        C  0.50966088  0.59822620  0.76015515    -0.30200
H563        H  0.45486149  0.58785578  0.70873373     0.14000
H564        H  0.03292324  0.62251439  0.78440467     0.14500
C565        C  0.52305367  0.89168701  0.77371921    -0.15100
C566        C  0.49674641  0.90756992  0.74923713    -0.30200
H567        H  0.55012198  0.91507608  0.80128580     0.14000
H568        H  0.97119077  0.88316660  0.71573813     0.14500
C569        C  0.49217413  0.59407899  0.02676999    -0.15100
C570        C  0.51998939  0.63464135  0.00004480    -0.30200
H571        H  0.47082036  0.59601377  0.54182145     0.14000
H572        H  0.05222823  0.63929587  0.97721926     0.14500
C573        C  0.48601824  0.87752630  0.98286315    -0.15100
C574        C  0.49939940  0.91393768  0.01685873    -0.30200
H575        H  0.95345311  0.87143517  0.95062059     0.14000
H576        H  0.52989067  0.91847843  0.55373625     0.14500
O577        O  0.97020923  0.17300005  0.98718567    -0.71600
O578        O  0.95370090  0.28975394  0.48319508    -0.72600
O579        O  0.96311229  0.22920820  0.40976816    -0.61200
O580        O  0.95760821  0.23424012  0.05863787    -0.69600
O581        O  0.53549840  0.27870854  0.05933732    -0.69100
O582        O  0.53559693  0.27708785  0.40742309    -0.60400
O583        O  0.52975802  0.33698594  0.48488454    -0.72900
O584        O  0.54878995  0.22170684  0.98210433    -0.71700
Cu585      Cu  0.95673028  0.22928342  0.98406538     1.04600
Cu586      Cu  0.54166760  0.27974220  0.48170496     1.04300
C587        C  0.51124875  0.17832937  0.98258644     0.94600
C588        C  0.48629505  0.33098440  0.48319115     0.93800
C589        C  0.49428751  0.25042006  0.38541514     0.85900
C590        C  0.49367780  0.25620963  0.08159514     0.92200
O591        O  0.53248029  0.27550218  0.15987814    -0.71600
O592        O  0.53298705  0.27196859  0.30717656    -0.72600
O593        O  0.52978429  0.20751203  0.22999755    -0.61200
O594        O  0.53159918  0.33785684  0.23887451    -0.69600
O595        O  0.95145420  0.29320109  0.24430070    -0.69100
O596        O  0.96595877  0.17380615  0.22899035    -0.60400
O597        O  0.96125235  0.23070020  0.30952794    -0.72900
O598        O  0.95734385  0.23665761  0.16096605    -0.71700
Cu599      Cu  0.53467088  0.27468492  0.23370886     1.04600
Cu600      Cu  0.95613866  0.23198458  0.23578625     1.04300
C601        C  0.99792780  0.26039180  0.13681633     0.94600
C602        C  0.00261238  0.25491461  0.33189542     0.93800
C603        C  0.00896814  0.17890230  0.22506869     0.85900
C604        C  0.98974913  0.33601521  0.24676866     0.92200
C605        C  0.54720553  0.05428887  0.50885413     0.03700
C606        C  0.54731658  0.50476194  0.51581268     0.03700
C607        C  0.00362793  0.46077478  0.51080286     0.03700
C608        C  0.95868331  0.46060923  0.50234349     0.03700
C609        C  0.95797577  0.50558299  0.50324923     0.03700
C610        C  0.00207212  0.05039848  0.50481657     0.03700
C611        C  0.54891852  0.05620344  0.24777633     0.03700
C612        C  0.54885202  0.50981036  0.23953763     0.03700
C613        C  0.00386264  0.46562104  0.24791083     0.03700
C614        C  0.95836238  0.46486706  0.25642295     0.03700
C615        C  0.95754830  0.50974594  0.26034969     0.03700
C616        C  0.00046628  0.05423314  0.24622466     0.03700
O617        O  0.69311835  0.02948063  0.99432181    -0.71600
O618        O  0.83813117  0.05298012  0.50458835    -0.72600
O619        O  0.77642736  0.04994973  0.42333480    -0.61200
O620        O  0.75698636  0.03200102  0.06952159    -0.69600
O621        O  0.70727338  0.44070124  0.08011293    -0.69100
O622        O  0.72386590  0.43833099  0.42966238    -0.60400
O623        O  0.77650067  0.43705173  0.01653462    -0.72900
O624        O  0.65195483  0.44158190  0.99703707    -0.71700
Cu625      Cu  0.77247637  0.04986603  0.49862902     1.04600
Cu626      Cu  0.71279430  0.43640246  0.00619476     1.04300
C627        C  0.65332544  0.48302684  0.99794083     0.94600
C628        C  0.81787494  0.47722378  0.01832431     0.93800
C629        C  0.74350641  0.47959003  0.40743018     0.85900
C630        C  0.73033064  0.48178610  0.10381819     0.92200
O631        O  0.69638353  0.03392354  0.25127832    -0.71600
O632        O  0.83324029  0.05490227  0.23620929    -0.72600
O633        O  0.75658549  0.03784571  0.16994384    -0.61200
O634        O  0.77214206  0.04883205  0.31942225    -0.69600
O635        O  0.72323101  0.43964237  0.32837658    -0.69100
O636        O  0.71065256  0.44100063  0.18076318    -0.60400
O637        O  0.78131657  0.44039218  0.24491809    -0.72900
O638        O  0.65354301  0.44117758  0.26349243    -0.71700
Cu639      Cu  0.76566430  0.04676378  0.24413952     1.04600
Cu640      Cu  0.71576630  0.43766303  0.25438900     1.04300
C641        C  0.65410650  0.48225259  0.26330332     0.94600
C642        C  0.82229774  0.48117529  0.24603478     0.93800
C643        C  0.73178668  0.48197545  0.15809195     0.85900
C644        C  0.74308742  0.48030328  0.35300615     0.92200
O645        O  0.79065828  0.23457318  0.42582308    -0.71600
O646        O  0.77462973  0.23110437  0.07125802    -0.72600
O647        O  0.71449117  0.16678468  0.99358230    -0.61200
O648        O  0.84428514  0.29029061  0.51180701    -0.69600
O649        O  0.80596857  0.33359784  0.50564811    -0.69100
O650        O  0.67594565  0.20585006  0.49311132    -0.60400
O651        O  0.72886803  0.26705172  0.07626167    -0.72900
O652        O  0.74736610  0.27316819  0.42515541    -0.71700
Cu653      Cu  0.78197196  0.22660453  0.50051399     1.04600
Cu654      Cu  0.73935144  0.27157948  0.49898912     1.04300
C655        C  0.77067478  0.25497178  0.40201008     0.94600
C656        C  0.75210773  0.24834049  0.09724403     0.93800
C657        C  0.67674988  0.16547008  0.48879859     0.85900
C658        C  0.84529113  0.33145256  0.51245109     0.92200
O659        O  0.67900329  0.20526698  0.25681782    -0.71600
O660        O  0.80587442  0.33589050  0.24674081    -0.72600
O661        O  0.73557733  0.26870752  0.17794405    -0.61200
O662        O  0.74815023  0.27373483  0.32574875    -0.69600
O663        O  0.79309732  0.23686804  0.32196410    -0.69100
O664        O  0.77571847  0.22696479  0.17247523    -0.60400
O665        O  0.84714593  0.29538677  0.23813384    -0.72900
O666        O  0.72285377  0.16715444  0.25583511    -0.71700
Cu667      Cu  0.74066774  0.27230751  0.25208802     1.04600
Cu668      Cu  0.78620813  0.23023309  0.24689102     1.04300
C669        C  0.68149864  0.16576597  0.25917528     0.94600
C670        C  0.84623565  0.33559862  0.23915819     0.93800
C671        C  0.75419453  0.24759641  0.15175058     0.85900
C672        C  0.77154460  0.25574894  0.34737093     0.92200
C673        C  0.63676553  0.11781378  0.26668837    -0.15100
C674        C  0.59561890  0.10427628  0.24072839    -0.30200
H675        H  0.63852701  0.09250352  0.29240397     0.14000
H676        H  0.59504067  0.13050612  0.21529616     0.14500
C677        C  0.91128020  0.41788168  0.26434695    -0.15100
C678        C  0.89238262  0.38161656  0.23009888    -0.30200
H679        H  0.89010688  0.41461901  0.29790702     0.14000
H680        H  0.91284881  0.38433734  0.19621660     0.14500
C681        C  0.59714423  0.51023442  0.23719277    -0.15100
C682        C  0.60712609  0.48224828  0.26682508    -0.30200
H683        H  0.62129194  0.03688895  0.20957865     0.14000
H684        H  0.57949050  0.45714107  0.29274307     0.14500
C685        C  0.90936267  0.50941431  0.26654883    -0.15100
C686        C  0.86898068  0.48076844  0.23889978    -0.30200
H687        H  0.88343103  0.98172666  0.28956546     0.14000
H688        H  0.86961889  0.45577246  0.21079163     0.14500
C689        C  0.59199065  0.10430750  0.51279831    -0.15100
C690        C  0.63099680  0.11807843  0.48247648    -0.30800
H691        H  0.58353098  0.12656379  0.04156328     0.14000
H692        H  0.63112333  0.09207282  0.45521085     0.14500
C693        C  0.91186114  0.41400163  0.49129184    -0.15100
C694        C  0.89235642  0.37635145  0.52280306    -0.30200
H695        H  0.90815332  0.38463871  0.05260385     0.14000
H696        H  0.91246575  0.37749237  0.55585876     0.14500
C697        C  0.59463827  0.50455759  0.52324980    -0.15100
C698        C  0.60684483  0.48348758  0.99288494    -0.30200
H699        H  0.61377743  0.03141251  0.04820790     0.14000
H700        H  0.58450758  0.45548133  0.46363986     0.14500
C701        C  0.86843227  0.47593148  0.51862114    -0.15100
C702        C  0.91088242  0.50626083  0.49504432    -0.30200
H703        H  0.86179344  0.95639024  0.03802479     0.14000
H704        H  0.91189728  0.53399359  0.47067362     0.14500
C705        C  0.01377985  0.13502189  0.21810773    -0.15100
C706        C  0.99796141  0.10029597  0.25293756    -0.30200
H707        H  0.02930359  0.13078866  0.18333909     0.14000
H708        H  0.53224417  0.13340998  0.28321413     0.14500
C709        C  0.98368445  0.37843448  0.25993262    -0.15100
C710        C  0.00595072  0.42015772  0.23403273    -0.30200
H711        H  0.96040661  0.37491794  0.29165749     0.14000
H712        H  0.52427786  0.41841291  0.19360401     0.14500
C713        C  0.99794658  0.09606201  0.50596956    -0.15100
C714        C  0.02321122  0.13460567  0.47609109    -0.30200
H715        H  0.96229289  0.09431726  0.02859011     0.14000
H716        H  0.54689794  0.13509012  0.45000838     0.14500
C717        C  0.98487722  0.37631508  0.48221599    -0.15100
C718        C  0.00475088  0.41362710  0.51573027    -0.30200
H719        H  0.45874777  0.37587788  0.44955021     0.14000
H720        H  0.02798039  0.41073057  0.04478365     0.14500
O721        O  0.97241111  0.17136470  0.48356649    -0.71600
O722        O  0.94929378  0.28950485  0.98085247    -0.72600
O723        O  0.96136901  0.22743654  0.90975920    -0.61200
O724        O  0.96192738  0.23110704  0.55836403    -0.69600
O725        O  0.54089064  0.27811996  0.55662178    -0.69100
O726        O  0.54109679  0.28080638  0.90988878    -0.60400
O727        O  0.52904194  0.33900121  0.98723479    -0.72900
O728        O  0.54891379  0.21968021  0.47770485    -0.71700
Cu729      Cu  0.95993502  0.22863637  0.48385997     1.04600
Cu730      Cu  0.54147979  0.28188888  0.98477435     1.04300
C731        C  0.51157899  0.17630249  0.47980617     0.94600
C732        C  0.48554238  0.33288839  0.98463566     0.93800
C733        C  0.50139910  0.25316930  0.88575926     0.85900
C734        C  0.50039597  0.25494869  0.58102524     0.92200
O735        O  0.54203704  0.27867585  0.65851797    -0.71600
O736        O  0.54300716  0.27451092  0.80762774    -0.72600
O737        O  0.55099423  0.21639439  0.72716291    -0.61200
O738        O  0.53327445  0.33520194  0.73848349    -0.69600
O739        O  0.95330997  0.28526338  0.74179986    -0.69100
O740        O  0.97001474  0.16678950  0.72999691    -0.60400
O741        O  0.96218308  0.22402719  0.80896765    -0.72900
O742        O  0.96174527  0.22911570  0.66008278    -0.71700
Cu743      Cu  0.54524763  0.27784675  0.73282627     1.04600
Cu744      Cu  0.95899100  0.22453148  0.73491826     1.04300
C745        C  0.00250354  0.25370714  0.63642055     0.94600
C746        C  0.00286091  0.24953676  0.83217011     0.93800
C747        C  0.01332223  0.17232082  0.72752873     0.85900
C748        C  0.99133482  0.32823928  0.74454454     0.92200
C749        C  0.53954836  0.05059978  0.00958409     0.03700
C750        C  0.54461715  0.50590919  0.02248524     0.03700
C751        C  0.00010230  0.45934262  0.01858926     0.03700
C752        C  0.95376559  0.45725001  0.01744481     0.03700
C753        C  0.95177101  0.50171931  0.01564975     0.03700
C754        C  0.99586816  0.05016451  0.00191303     0.03700
C755        C  0.54449505  0.04669303  0.75092062     0.03700
C756        C  0.54869521  0.50190376  0.74015807     0.03700
C757        C  0.00257893  0.45611574  0.74298669     0.03700
C758        C  0.95721248  0.45552133  0.75246643     0.03700
C759        C  0.95727843  0.50103327  0.75704574     0.03700
C760        C  0.99970378  0.04602332  0.75495822     0.03700
O761        O  0.70373525  0.04010984  0.49495705    -0.71600
O762        O  0.82187046  0.02723433  0.99769684    -0.72600
O763        O  0.75976996  0.02887165  0.92190739    -0.61200
O764        O  0.76648834  0.04447188  0.57243974    -0.69600
O765        O  0.71255199  0.43600364  0.57857068    -0.69100
O766        O  0.72168677  0.43767560  0.93187710    -0.60400
O767        O  0.78165054  0.43658731  0.51027845    -0.72900
O768        O  0.65476660  0.43797966  0.49802311    -0.71700
Cu769      Cu  0.75939279  0.03226934  0.99575564     1.04600
Cu770      Cu  0.71673295  0.43434105  0.50400563     1.04300
C771        C  0.65520579  0.47896138  0.49989671     0.94600
C772        C  0.82264401  0.47722449  0.51118958     0.93800
C773        C  0.74249211  0.47820928  0.90831965     0.85900
C774        C  0.73466486  0.47661932  0.60321334     0.92200
O775        O  0.69490747  0.02720212  0.74784022    -0.71600
O776        O  0.83172331  0.04770833  0.74581443    -0.72600
O777        O  0.76378137  0.04059611  0.67350522    -0.61200
O778        O  0.76121713  0.03211019  0.82207651    -0.69600
O779        O  0.72385180  0.43620800  0.82978240    -0.69100
O780        O  0.71372342  0.43525572  0.68053807    -0.60400
O781        O  0.78235552  0.43506419  0.74731582    -0.72900
O782        O  0.65504994  0.43545737  0.76217845    -0.71700
Cu783      Cu  0.76404305  0.03970361  0.74784822     1.04600
Cu784      Cu  0.71737368  0.43263759  0.75503173     1.04300
C785        C  0.65506015  0.47614808  0.76109583     0.94600
C786        C  0.82338236  0.47561171  0.74781523     0.93800
C787        C  0.73530876  0.47620387  0.65766098     0.85900
C788        C  0.74323747  0.47739633  0.85365270     0.92200
O789        O  0.77556521  0.23742933  0.92345839    -0.71600
O790        O  0.76993652  0.22210708  0.57468765    -0.72600
O791        O  0.71738413  0.16527302  0.48961248    -0.61200
O792        O  0.83436635  0.30272607  0.99936548    -0.69600
O793        O  0.78514410  0.33497782  0.99911268    -0.69100
O794        O  0.66623005  0.19981187  0.00181670    -0.60400
O795        O  0.73374284  0.26764959  0.57293867    -0.72900
O796        O  0.72483170  0.26789750  0.92624911    -0.71700
Cu797      Cu  0.77640267  0.23333733  0.99701483     1.04600
Cu798      Cu  0.72444559  0.26853424  0.00128884     1.04300
C799        C  0.75098545  0.25383106  0.90149951     0.94600
C800        C  0.74979082  0.24406944  0.59719960     0.93800
C801        C  0.67148534  0.16207472  0.99660180     0.85900
C802        C  0.82822547  0.34009238  0.99743374     0.92200
O803        O  0.66622098  0.21901385  0.75523365    -0.71600
O804        O  0.80403984  0.33387796  0.74532507    -0.72600
O805        O  0.73243053  0.27072213  0.67464121    -0.61200
O806        O  0.73708571  0.28017762  0.82419898    -0.69600
O807        O  0.76886955  0.23060751  0.82340734    -0.69100
O808        O  0.76189306  0.21923944  0.67553497    -0.60400
O809        O  0.83442416  0.28312050  0.74280013    -0.72900
O810        O  0.69620561  0.16788693  0.75489167    -0.71700
Cu811      Cu  0.73395429  0.27782930  0.74966770     1.04600
Cu812      Cu  0.76639154  0.22345390  0.74931125     1.04300
C813        C  0.65974618  0.17559021  0.75814946     0.94600
C814        C  0.84071385  0.32665669  0.74119889     0.93800
C815        C  0.74720811  0.24416956  0.65163544     0.85900
C816        C  0.75253127  0.25527816  0.84719836     0.92200
C817        C  0.60984431  0.13423479  0.76706595    -0.15100
C818        C  0.59263137  0.09217377  0.74071544    -0.30200
H819        H  0.58738366  0.13857180  0.79562748     0.14000
H820        H  0.61674103  0.08932846  0.71290910     0.14500
C821        C  0.90985915  0.40872838  0.76251865    -0.15100
C822        C  0.89042808  0.36886549  0.73223107    -0.30200
H823        H  0.88791617  0.40886025  0.79419161     0.14000
H824        H  0.91046638  0.36740889  0.69959468     0.14500
C825        C  0.59598266  0.50122819  0.73425616    -0.15100
C826        C  0.60757329  0.47500124  0.76452726    -0.30200
H827        H  0.61965808  0.03206641  0.78519221     0.14000
H828        H  0.58081856  0.45066891  0.79162533     0.14500
C829        C  0.91040243  0.50206687  0.76620459    -0.15100
C830        C  0.86915772  0.47400806  0.73983549    -0.30200
H831        H  0.88227014  0.97378594  0.79953396     0.14000
H832        H  0.86828718  0.44805535  0.71187993     0.14500
C833        C  0.58546484  0.09957284  0.01696734    -0.15100
C834        C  0.62769791  0.11266766  0.99183276    -0.30800
H835        H  0.59209429  0.13054377  0.53996201     0.14000
H836        H  0.63034396  0.08690829  0.96612463     0.14500
C837        C  0.90857432  0.40800248  0.02305400    -0.15100
C838        C  0.87088701  0.38960451  0.99117204    -0.30200
H839        H  0.89109277  0.41235573  0.45852128     0.14000
H840        H  0.87040309  0.41174385  0.96092892     0.14500
C841        C  0.59370385  0.50848264  0.02494092    -0.15100
C842        C  0.60852005  0.47866965  0.49336966    -0.30200
H843        H  0.62705769  0.04342607  0.54242249     0.14000
H844        H  0.58136474  0.45983447  0.96430151     0.14500
C845        C  0.86262099  0.47539176  0.03042820    -0.15100
C846        C  0.90495419  0.50194906  0.00540293    -0.30200
H847        H  0.90291625  0.03248774  0.55657167     0.14000
H848        H  0.90631474  0.52695293  0.97721897     0.14500
C849        C  0.01901141  0.12855069  0.72369881    -0.15100
C850        C  0.99758202  0.09260844  0.75725819    -0.30200
H851        H  0.04181887  0.12653272  0.69398824     0.14000
H852        H  0.47435902  0.09759619  0.78567582     0.14500
C853        C  0.98473547  0.37038243  0.75703519    -0.15100
C854        C  0.00439444  0.41065725  0.72904509    -0.30200
H855        H  0.96335173  0.36803617  0.79001945     0.14000
H856        H  0.52556515  0.41188689  0.69537960     0.14500
C857        C  0.99263924  0.09610684  0.00667670    -0.15100
C858        C  0.02213178  0.13755433  0.98208188    -0.30200
H859        H  0.97302631  0.09829159  0.53286756     0.14000
H860        H  0.54906493  0.13831713  0.95654451     0.14500
C861        C  0.97918414  0.37581030  0.98544165    -0.15100
C862        C  0.00284576  0.41285745  0.01880093    -0.30200
H863        H  0.45314181  0.37733088  0.96080349     0.14000
H864        H  0.02626658  0.41138037  0.54589514     0.14500
O865        O  0.96915362  0.67156325  0.00254549    -0.71600
O866        O  0.95644867  0.79055271  0.49213142    -0.72600
O867        O  0.96927617  0.73071268  0.42059202    -0.61200
O868        O  0.96024093  0.73723735  0.07123294    -0.69600
O869        O  0.54209726  0.78384638  0.07266829    -0.69100
O870        O  0.55335096  0.78450006  0.42345297    -0.60400
O871        O  0.54624028  0.84483389  0.49932022    -0.72900
O872        O  0.55086250  0.72074846  0.00012357    -0.71700
Cu873      Cu  0.95538389  0.72786256  0.99684422     1.04600
Cu874      Cu  0.55640194  0.78644983  0.49839872     1.04300
C875        C  0.51290077  0.67771506  0.00217612     0.94600
C876        C  0.50321222  0.83936666  0.49456893     0.93800
C877        C  0.51251284  0.75836070  0.40048821     0.85900
C878        C  0.50121041  0.76174853  0.09649294     0.92200
O879        O  0.54320262  0.78902853  0.17308427    -0.71600
O880        O  0.55031440  0.78464443  0.32120122    -0.72600
O881        O  0.55722952  0.72862833  0.23888826    -0.61200
O882        O  0.53503831  0.84484643  0.25407477    -0.69600
O883        O  0.95809884  0.79680010  0.25599688    -0.69100
O884        O  0.97425642  0.67791754  0.23913652    -0.60400
O885        O  0.96840093  0.73349162  0.32050220    -0.72900
O886        O  0.96344607  0.74085666  0.17265780    -0.71700
Cu887      Cu  0.54927249  0.78864775  0.24674320     1.04600
Cu888      Cu  0.96325144  0.73563131  0.24698759     1.04300
C889        C  0.00336630  0.76511271  0.14775643     0.94600
C890        C  0.00964334  0.75757594  0.34300375     0.93800
C891        C  0.01748519  0.68342379  0.23463176     0.85900
C892        C  0.99633763  0.83977097  0.25732935     0.92200
C893        C  0.54784504  0.55046350  0.51721018     0.03700
C894        C  0.55125177  0.01111452  0.51099044     0.03700
C895        C  0.00677361  0.96261932  0.51375575     0.03700
C896        C  0.96025296  0.96001716  0.51067745     0.03700
C897        C  0.95828933  0.00376722  0.50314653     0.03700
C898        C  0.00222936  0.55094451  0.51132313     0.03700
C899        C  0.54901652  0.55495174  0.24344392     0.03700
C900        C  0.54791466  0.01038897  0.24522058     0.03700
C901        C  0.00508597  0.96588463  0.24236087     0.03700
C902        C  0.95905350  0.96369083  0.25190733     0.03700
C903        C  0.95683030  0.00795130  0.25295869     0.03700
C904        C  0.00243697  0.55554454  0.25724400     0.03700
O905        O  0.69429741  0.52342146  0.00267734    -0.71600
O906        O  0.82384469  0.51845361  0.50779576    -0.72600
O907        O  0.76208604  0.52020508  0.43209891    -0.61200
O908        O  0.75403464  0.52240141  0.08074437    -0.69600
O909        O  0.71303569  0.95020362  0.07122193    -0.69100
O910        O  0.74277418  0.96846656  0.42006123    -0.60400
O911        O  0.77815223  0.94548704  0.00139303    -0.72900
O912        O  0.65277357  0.94752967  0.99053758    -0.71700
Cu913      Cu  0.76123660  0.52194058  0.50664086     1.04600
Cu914      Cu  0.71455154  0.94465886  0.99577677     1.04300
C915        C  0.65271899  0.98812772  0.99105179     0.94600
C916        C  0.81954133  0.98539891  0.00188178     0.93800
C917        C  0.76013205  0.00970886  0.39820035     0.85900
C918        C  0.73538563  0.99216892  0.09386685     0.92200
O919        O  0.69482474  0.52300097  0.26014770    -0.71600
O920        O  0.82300996  0.52210306  0.25213099    -0.72600
O921        O  0.75585717  0.52281783  0.18203569    -0.61200
O922        O  0.76117319  0.52149860  0.33083301    -0.69600
O923        O  0.74186516  0.96784456  0.32095346    -0.69100
O924        O  0.72526706  0.95678518  0.17350201    -0.60400
O925        O  0.80321151  0.97402667  0.24009463    -0.72900
O926        O  0.66536845  0.95296115  0.25615647    -0.71700
Cu927      Cu  0.76021476  0.52524311  0.25644505     1.04600
Cu928      Cu  0.73293441  0.96012917  0.24771982     1.04300
C929        C  0.65946435  0.99051000  0.25607924     0.94600
C930        C  0.83984468  0.01787473  0.23583920     0.93800
C931        C  0.73856708  0.99554796  0.14834019     0.85900
C932        C  0.75875474  0.00929535  0.34363149     0.92200
O933        O  0.78394176  0.73913368  0.42825163    -0.71600
O934        O  0.76884885  0.72264735  0.07885919    -0.72600
O935        O  0.71271099  0.66274465  0.99702963    -0.61200
O936        O  0.84022341  0.80483769  0.50536680    -0.69600
O937        O  0.78933627  0.83512113  0.50417542    -0.69100
O938        O  0.67257637  0.69838452  0.50404488    -0.60400
O939        O  0.73115511  0.76687225  0.07912381    -0.72900
O940        O  0.73210581  0.76829586  0.43016640    -0.71700
Cu941      Cu  0.78330492  0.73481163  0.50239546     1.04600
Cu942      Cu  0.72945691  0.76788409  0.50473970     1.04300
C943        C  0.75942096  0.75546249  0.40589330     0.94600
C944        C  0.74948201  0.74479524  0.10237943     0.93800
C945        C  0.67904813  0.66126642  0.50049219     0.85900
C946        C  0.83292875  0.84144693  0.50293506     0.92200
O947        O  0.67289726  0.72100816  0.26202472    -0.71600
O948        O  0.80875731  0.83766407  0.24918165    -0.72600
O949        O  0.73579035  0.77308446  0.18046873    -0.61200
O950        O  0.74498485  0.78253579  0.32952686    -0.69600
O951        O  0.77901321  0.73492631  0.32704422    -0.69100
O952        O  0.76694063  0.72296604  0.17959876    -0.60400
O953        O  0.84130518  0.78882848  0.24439909    -0.72900
O954        O  0.70440078  0.67113699  0.26047059    -0.71700
Cu955      Cu  0.73966794  0.78046348  0.25526559     1.04600
Cu956      Cu  0.77414532  0.72780821  0.25297516     1.04300
C957        C  0.66738659  0.67797505  0.26439092     0.94600
C958        C  0.84614045  0.83184301  0.24325327     0.93800
C959        C  0.75017249  0.74661838  0.15668712     0.85900
C960        C  0.76169592  0.75824527  0.35165987     0.92200
C961        C  0.61768291  0.63593512  0.27189789    -0.15100
C962        C  0.59726067  0.60079296  0.23682180    -0.30200
H963        H  0.59739559  0.63447190  0.30551718     0.14000
H964        H  0.61835275  0.60383062  0.20328907     0.14500
C965        C  0.91230854  0.91610695  0.26190501    -0.15100
C966        C  0.89488707  0.87524249  0.23317313    -0.30200
H967        H  0.88999777  0.91519690  0.29359042     0.14000
H968        H  0.91587162  0.87370177  0.20141068     0.14500
C969        C  0.59545077  0.01075420  0.23617098    -0.15100
C970        C  0.60972452  0.98395251  0.26238236    -0.30200
H971        H  0.62560982  0.53495874  0.21165937     0.14000
H972        H  0.58525819  0.95766458  0.28954209     0.14500
C973        C  0.90757920  0.00465837  0.26015570    -0.15100
C974        C  0.89030613  0.02606307  0.22988455    -0.30200
H975        H  0.90703048  0.53375352  0.29436876     0.14000
H976        H  0.91338952  0.05011244  0.20052929     0.14500
C977        C  0.59496908  0.59818604  0.52487032    -0.15100
C978        C  0.63587977  0.61120790  0.49738064    -0.30800
H979        H  0.59073593  0.62528341  0.05712377     0.14000
H980        H  0.63743901  0.58537968  0.47095661     0.14500
C981        C  0.91473767  0.91225950  0.52263503    -0.15100
C982        C  0.87451146  0.89109749  0.49388233    -0.30200
H983        H  0.88126747  0.90998411  0.95546694     0.14000
H984        H  0.87239495  0.90881549  0.46077616     0.14500
C985        C  0.60111646  0.01605180  0.51630088    -0.15100
C986        C  0.60513570  0.98602407  0.98602612    -0.30200
H987        H  0.61990861  0.53238632  0.05300187     0.14000
H988        H  0.59104351  0.96361297  0.46033540     0.14500
C989        C  0.88797862  0.01732455  0.52010002    -0.15100
C990        C  0.91097857  0.00093054  0.48974775    -0.30200
H991        H  0.86003015  0.45066570  0.05940467     0.14000
H992        H  0.89598651  0.98704946  0.45299152     0.14500
C993        C  0.02314512  0.63967195  0.22893896    -0.15100
C994        C  0.99981435  0.60195122  0.26029313    -0.30200
H995        H  0.04765457  0.63926565  0.20020441     0.14000
H996        H  0.48034737  0.60426953  0.28988525     0.14500
C997        C  0.99034375  0.88288846  0.26652313    -0.15100
C998        C  0.00874119  0.92039594  0.23468274    -0.30200
H999        H  0.96916181  0.88288319  0.29881112     0.14000
H1000       H  0.52412288  0.91766568  0.20713827     0.14500
C1001       C  0.99884662  0.59693640  0.51538800    -0.15100
C1002       C  0.02945468  0.63896272  0.49191049    -0.30200
H1003       H  0.96046502  0.59173472  0.04410293     0.14000
H1004       H  0.55945295  0.64140767  0.47070820     0.14500
C1005       C  0.98494437  0.87625640  0.49248085    -0.15100
C1006       C  0.00993271  0.91699201  0.52102287    -0.30200
H1007       H  0.48284663  0.88432818  0.45071395     0.14000
H1008       H  0.02042842  0.91305715  0.04175642     0.14500
O1009       O  0.97799849  0.67485455  0.49711632    -0.71600
O1010       O  0.94727690  0.78746158  0.99001931    -0.72600
O1011       O  0.95632041  0.72224894  0.92233267    -0.61200
O1012       O  0.96544198  0.73500308  0.56941840    -0.69600
O1013       O  0.55278858  0.78451236  0.57360194    -0.69100
O1014       O  0.54264127  0.77597995  0.92406391    -0.60400
O1015       O  0.53484380  0.84004560  0.99525072    -0.72900
O1016       O  0.56150325  0.72515170  0.49617937    -0.71700
Cu1017     Cu  0.96450715  0.73103045  0.49486461     1.04600
Cu1018     Cu  0.54543258  0.78185799  0.99824003     1.04300
C1019       C  0.52340784  0.68223172  0.49809429     0.94600
C1020       C  0.49162801  0.83438729  0.99143897     0.93800
C1021       C  0.50205997  0.74957452  0.90089804     0.85900
C1022       C  0.51136097  0.76256800  0.59666594     0.92200
O1023       O  0.54950960  0.77618575  0.67589155    -0.71600
O1024       O  0.54384333  0.76452766  0.82401615    -0.72600
O1025       O  0.53587951  0.70075951  0.74337220    -0.61200
O1026       O  0.55539279  0.83792664  0.75963841    -0.69600
O1027       O  0.97049616  0.80346170  0.75241150    -0.69100
O1028       O  0.94808780  0.66560029  0.73777259    -0.60400
O1029       O  0.95644621  0.72910012  0.81958421    -0.72900
O1030       O  0.96257686  0.73997443  0.67072636    -0.71700
Cu1031     Cu  0.54905697  0.77089766  0.75051247     1.04600
Cu1032     Cu  0.95654506  0.73347371  0.74493487     1.04300
C1033       C  0.00410181  0.75665260  0.64834675     0.94600
C1034       C  0.99659607  0.74424419  0.84366865     0.93800
C1035       C  0.98520436  0.65899406  0.73779405     0.85900
C1036       C  0.01431100  0.83987488  0.75820032     0.92200
C1037       C  0.54253944  0.55024438  0.02452366     0.03700
C1038       C  0.54125541  0.00616664  0.01134173     0.03700
C1039       C  0.99606989  0.95955338  0.00389273     0.03700
C1040       C  0.95116642  0.95968399  0.99541339     0.03700
C1041       C  0.95151428  0.00516280  0.99383757     0.03700
C1042       C  0.99586973  0.54804325  0.02010527     0.03700
C1043       C  0.55009867  0.54759028  0.74556995     0.03700
C1044       C  0.54503342  0.00175455  0.75357463     0.03700
C1045       C  0.00103699  0.95579384  0.75371497     0.03700
C1046       C  0.95621773  0.95572800  0.76092850     0.03700
C1047       C  0.95512940  0.00045427  0.76202131     0.03700
C1048       C  0.00244491  0.54639180  0.75395450     0.03700
O1049       O  0.69567157  0.51973370  0.50544012    -0.71600
O1050       O  0.82039673  0.51870811  0.01152926    -0.72600
O1051       O  0.76111940  0.51954916  0.93180026    -0.61200
O1052       O  0.75750515  0.51781257  0.58094396    -0.69600
O1053       O  0.73246388  0.96289951  0.56804471    -0.69100
O1054       O  0.72046212  0.94699994  0.92020120    -0.60400
O1055       O  0.80355801  0.97135806  0.49906360    -0.72900
O1056       O  0.67030716  0.95868989  0.48913428    -0.71700
Cu1057     Cu  0.75896114  0.52394085  0.00647825     1.04600
Cu1058     Cu  0.73606851  0.96259911  0.49374941     1.04300
C1059       C  0.66580973  0.99699801  0.49087510     0.94600
C1060       C  0.84128506  0.01387667  0.50618203     0.93800
C1061       C  0.74089904  0.98822821  0.89751982     0.85900
C1062       C  0.74934893  0.00293437  0.59354417     0.92200
O1063       O  0.69556457  0.51722710  0.75787484    -0.71600
O1064       O  0.82459166  0.51688368  0.75324165    -0.72600
O1065       O  0.75864973  0.51706786  0.68164183    -0.61200
O1066       O  0.76176029  0.51803510  0.83044835    -0.69600
O1067       O  0.72645312  0.95059799  0.81678257    -0.69100
O1068       O  0.73664272  0.96010650  0.66835743    -0.60400
O1069       O  0.80155845  0.96665877  0.74562111    -0.72900
O1070       O  0.66369814  0.94643954  0.73715709    -0.71700
Cu1071     Cu  0.76165567  0.52021538  0.75594493     1.04600
Cu1072     Cu  0.73106308  0.95303190  0.74204493     1.04300
C1073       C  0.65815097  0.98419755  0.73969571     0.94600
C1074       C  0.83837627  0.01072316  0.74509153     0.93800
C1075       C  0.74986336  0.00117740  0.64764363     0.85900
C1076       C  0.74290047  0.99015485  0.84292447     0.92200
O1077       O  0.78142670  0.73249360  0.92984989    -0.71600
O1078       O  0.77951992  0.73272772  0.57698635    -0.72600
O1079       O  0.72255786  0.66716332  0.49835904    -0.61200
O1080       O  0.83842149  0.79059469  0.01272290    -0.69600
O1081       O  0.79787246  0.83180801  0.00761728    -0.69100
O1082       O  0.66938596  0.70125159  0.00352723    -0.60400
O1083       O  0.73102126  0.76573158  0.57930762    -0.72900
O1084       O  0.73511056  0.76792147  0.93082813    -0.71700
Cu1085     Cu  0.77677989  0.72568296  0.00449100     1.04600
Cu1086     Cu  0.73182155  0.76834931  0.00512209     1.04300
C1087       C  0.75915008  0.75105857  0.90686910     0.94600
C1088       C  0.75455354  0.74819051  0.60160948     0.93800
C1089       C  0.67133967  0.66144898  0.99921222     0.85900
C1090       C  0.83818214  0.83113874  0.01287283     0.92200
O1091       O  0.67402549  0.69391934  0.75768236    -0.71600
O1092       O  0.78476143  0.83225884  0.75108152    -0.72600
O1093       O  0.72697334  0.76031919  0.68047945    -0.61200
O1094       O  0.73317025  0.76577230  0.82970312    -0.69600
O1095       O  0.78576932  0.73756975  0.82798128    -0.69100
O1096       O  0.77992165  0.73254566  0.67877120    -0.60400
O1097       O  0.83826032  0.80507328  0.75092805    -0.72900
O1098       O  0.72617667  0.66514600  0.75715688    -0.71700
Cu1099     Cu  0.72785601  0.76391694  0.75495075     1.04600
Cu1100     Cu  0.78448627  0.73411242  0.75354716     1.04300
C1101       C  0.68215037  0.65787751  0.75879264     0.94600
C1102       C  0.82893325  0.84041634  0.74927397     0.93800
C1103       C  0.75353787  0.74662074  0.65613292     0.85900
C1104       C  0.75975774  0.75188457  0.85233227     0.92200
C1105       C  0.63988945  0.60764355  0.76266014    -0.15100
C1106       C  0.59723348  0.59549419  0.73977704    -0.30200
H1107       H  0.64358019  0.58165645  0.78562984     0.14000
H1108       H  0.59565325  0.62340863  0.71780088     0.14500
C1109       C  0.91104588  0.90728198  0.76984237    -0.15100
C1110       C  0.86936060  0.89113513  0.74411684    -0.30200
H1111       H  0.91415498  0.88207161  0.79473129     0.14000
H1112       H  0.86498071  0.91484669  0.71837301     0.14500
C1113       C  0.59407780  0.00492717  0.75862257    -0.15100
C1114       C  0.60918535  0.97848018  0.73156348    -0.30200
H1115       H  0.62302976  0.52533247  0.70718953     0.14000
H1116       H  0.58523243  0.95171258  0.70394030     0.14500
C1117       C  0.90655475  0.99811846  0.77085759    -0.15100
C1118       C  0.88912744  0.01950163  0.74078329    -0.30200
H1119       H  0.91066206  0.52838957  0.79340474     0.14000
H1120       H  0.91211777  0.04337288  0.71126485     0.14500
C1121       C  0.58881072  0.59915047  0.02875245    -0.15100
C1122       C  0.62600531  0.61312604  0.99589370    -0.30800
H1123       H  0.59459372  0.62517333  0.55064916     0.14000
H1124       H  0.62440095  0.58742512  0.96724237     0.14500
C1125       C  0.90336111  0.91310708  0.98764317    -0.15100
C1126       C  0.88508981  0.87700570  0.02095187    -0.30200
H1127       H  0.91619156  0.89180384  0.55405894     0.14000
H1128       H  0.90658915  0.87968326  0.05342503     0.14500
C1129       C  0.58951477  0.00836846  0.01847767    -0.15100
C1130       C  0.61614026  0.99069609  0.48708372    -0.30200
H1131       H  0.61967398  0.52819543  0.55223143     0.14000
H1132       H  0.58106012  0.96310460  0.95615816     0.14500
C1133       C  0.86405314  0.98189686  0.01004441    -0.15100
C1134       C  0.90558290  0.00721248  0.98352005    -0.30200
H1135       H  0.86669638  0.44887134  0.54426467     0.14000
H1136       H  0.90748448  0.03324627  0.95627146     0.14500
C1137       C  0.97705190  0.60841459  0.73378750    -0.15100
C1138       C  0.00451539  0.59506762  0.76016169    -0.30200
H1139       H  0.94827015  0.58214148  0.70920870     0.14000
H1140       H  0.53823923  0.62460904  0.78501067     0.14500
C1141       C  0.02194298  0.88948566  0.76909681    -0.15100
C1142       C  0.99782349  0.90709751  0.74353718    -0.30200
H1143       H  0.04838259  0.91197918  0.79755921     0.14000
H1144       H  0.46939600  0.88264585  0.72251916     0.14500
C1145       C  0.99154250  0.59387894  0.02331311    -0.15100
C1146       C  0.02137566  0.63589884  0.99921366    -0.30200
H1147       H  0.96793699  0.59500673  0.53632257     0.14000
H1148       H  0.54862651  0.63662775  0.97538250     0.14500
C1149       C  0.97642981  0.87317515  0.98130962    -0.15100
C1150       C  0.99739173  0.91290410  0.01177184    -0.30200
H1151       H  0.47187825  0.87985884  0.94703948     0.14000
H1152       H  0.03687042  0.91859643  0.54721560     0.14500
loop_ 
_geom_bond_atom_site_label_1 
_geom_bond_atom_site_label_2 
_geom_bond_distance 
_geom_bond_site_symmetry_2 
_ccdc_geom_bond_type 
O1           Cu9   2.019       .  S
O1          C587   1.280       .  A
O2         Cu153   2.021       .  S
O2          C588   1.279       .  A
O3         Cu153   1.994       .  S
O3          C589   1.274       .  A
O4           Cu9   2.005   1_554  S
O4          C590   1.276       .  A
O5         Cu154   2.006   1_554  S
O5           C14   1.278   1_455  A
O6          Cu10   2.008       .  S
O6           C13   1.278       .  A
O7          Cu10   2.016       .  S
O7           C12   1.278   1_455  A
O8         Cu154   2.003       .  S
O8           C11   1.275       .  A
Cu9         O146   2.019       .  S
Cu9         O147   2.000       .  S
Cu9        Cu730   2.374       .  S
Cu10        O149   2.014       .  S
Cu10        O152   2.013       .  S
Cu10       Cu729   2.375   1_455  S
C11         O577   1.279   1_455  A
C11         C858   1.468       .  S
C12         O578   1.278       .  A
C12         C717   1.473       .  S
C13         O579   1.276   1_455  A
C13         C602   1.461       .  S
C14         O580   1.277       .  A
C14         C601   1.466       .  S
O15         Cu23   1.994       .  S
O15         C601   1.276   1_455  A
O16         Cu23   2.005       .  S
O16         C602   1.277       .  A
O17         Cu23   2.014       .  S
O17         C603   1.278       .  A
O18         Cu23   2.015       .  S
O18         C604   1.279   1_455  A
O19         Cu24   1.985       .  S
O19          C28   1.272       .  A
O20         Cu24   1.980       .  S
O20          C27   1.271       .  A
O21         Cu24   2.020       .  S
O21          C26   1.281       .  A
O22         Cu24   2.026       .  S
O22          C25   1.281       .  A
Cu23       Cu600   2.379   1_455  S
Cu24       Cu599   2.377       .  S
C25         O591   1.274       .  A
C25         C590   1.467       .  S
C26         O592   1.273       .  A
C26         C589   1.460       .  S
C27         O593   1.282       .  A
C27         C129   1.465       .  S
C28         O594   1.281       .  A
C28         C133   1.464       .  S
C29         C113   1.491       .  S
C29         C318   1.423       .  A
C29         C610   1.416       .  A
C30         C121   1.496       .  S
C30         C317   1.423       .  A
C30         C607   1.426       .  A
C31         C142   1.499       .  S
C31          C32   1.424       .  A
C31         C606   1.425       .  A
C32         C117   1.488       .  S
C32          C33   1.417       .  A
C33         C126   1.499       .  S
C33         C322   1.414       .  A
C34         C137   1.496       .  S
C34         C605   1.416       .  A
C34         C321   1.419       .  A
C35          C98   1.500       .  S
C35         C324   1.417       .  A
C35         C616   1.419       .  A
C36         C105   1.507       .  S
C36         C323   1.420       .  A
C36         C613   1.418       .  A
C37         C134   1.490       .  S
C37          C38   1.425       .  A
C37         C612   1.411       .  A
C38         C101   1.493       .  S
C38          C39   1.424       .  A
C39         C109   1.509       .  S
C39         C328   1.425       .  A
C40         C130   1.491       .  S
C40         C611   1.407       .  A
C40         C327   1.415       .  A
O41        Cu193   2.004       .  S
O41         C339   1.277   1_545  A
O42         Cu49   1.990       .  S
O42         C484   1.274       .  A
O43         Cu49   2.015       .  S
O43         C341   1.279   1_545  A
O44        Cu193   2.002   1_554  S
O44         C342   1.277   1_545  A
O45         Cu50   2.009       .  S
O45          C54   1.278       .  A
O46        Cu194   2.008       .  S
O46          C53   1.278       .  A
O47         Cu50   2.005       .  S
O47          C52   1.276       .  A
O48         Cu50   2.007   1_556  S
O48          C51   1.277   1_556  A
Cu49        O185   1.998       .  S
Cu49        O188   1.994       .  S
Cu49       Cu482   2.380   1_545  S
Cu50        O190   2.019   1_554  S
Cu50       Cu481   2.374       .  S
C51         O329   1.277       .  A
C51         C122   1.468   1_554  S
C52         O474   1.278       .  A
C52         C269   1.470       .  S
C53         O331   1.278       .  A
C53          C68   1.467       .  S
C54         O332   1.277       .  A
C54          C67   1.464       .  S
O55         Cu63   2.024       .  S
O55         C353   1.279   1_545  A
O56         Cu63   2.029       .  S
O56         C354   1.281   1_545  A
O57         Cu63   2.002       .  S
O57         C355   1.277   1_545  A
O58         Cu63   1.999       .  S
O58         C356   1.275   1_545  A
O59         Cu64   2.005       .  S
O59          C68   1.277       .  A
O60         Cu64   2.003       .  S
O60          C67   1.276       .  A
O61         Cu64   2.020       .  S
O61          C66   1.278       .  A
O62         Cu64   2.016       .  S
O62          C65   1.278       .  A
Cu63       Cu352   2.375   1_545  S
Cu64       Cu351   2.373       .  S
C65         O343   1.278       .  A
C65         C106   1.475       .  S
C66         O344   1.278       .  A
C66         C110   1.477       .  S
C67         O345   1.278       .  A
C68         O346   1.278       .  A
O69         Cu77   2.032       .  S
O69          C79   1.280       .  A
O70        Cu221   2.003   1_554  S
O70          C80   1.276       .  A
O71        Cu221   2.013       .  S
O71         C225   1.277       .  A
O72         Cu77   1.988       .  S
O72          C82   1.273       .  A
O73         Cu78   2.021       .  S
O73          C82   1.280       .  A
O74         Cu78   2.025       .  S
O74          C81   1.280       .  A
O75        Cu222   2.023   1_554  S
O75          C80   1.280       .  A
O76         Cu78   1.995       .  S
O76          C79   1.276       .  A
Cu77        O214   2.025       .  S
Cu77        O215   1.989       .  S
Cu77        Cu78   2.375       .  S
Cu78        O219   1.994       .  S
C79          C96   1.471       .  S
C80          C95   1.470       .  S
C81         O215   1.273       .  A
C81         C114   1.466       .  S
C82         C118   1.463       .  S
O83         Cu91   2.022       .  S
O83          C93   1.280       .  A
O84         Cu91   2.019       .  S
O84          C94   1.279       .  A
O85         Cu91   2.003       .  S
O85          C95   1.276       .  A
O86         Cu91   2.000       .  S
O86          C96   1.277       .  A
O87         Cu92   2.027       .  S
O87          C96   1.279       .  A
O88         Cu92   2.023       .  S
O88          C95   1.281       .  A
O89         Cu92   1.999       .  S
O89          C94   1.275       .  A
O90         Cu92   2.005       .  S
O90          C93   1.275       .  A
Cu91        Cu92   2.375       .  S
C93          C97   1.471       .  S
C94         C102   1.466       .  S
C97          C98   1.341       .  D
C97          H99   1.085       .  S
C98         H100   1.081       .  S
C101        C102   1.339       .  D
C101        H103   1.087       .  S
C102        H104   1.085       .  S
C105        C106   1.348       .  D
C105        H395   1.085       .  S
C106        H108   1.086       .  S
H107        C393   1.087       .  S
C109        C110   1.348       .  D
C109        H399   1.084       .  S
C110        H112   1.084       .  S
H111        C397   1.087       .  S
C113        C114   1.340       .  D
C113        H259   1.087       .  S
C114        H116   1.086       .  S
H115        C257   1.086       .  S
C117        C118   1.337       .  D
C117        H263   1.087       .  S
C118        H120   1.086       .  S
H119        C261   1.088       .  S
C121        C266   1.344       .  D
C121        H555   1.087       .  S
C122        C265   1.345   1_556  D
C122        H268   1.085       .  S
H123        C553   1.087       .  S
H124        C266   1.085       .  S
C125        C196   1.466       .  S
C125        C126   1.342       .  D
C125        H559   1.085       .  S
C126        H128   1.087       .  S
H127        C557   1.085       .  S
C129        C130   1.337       .  D
C129        H131   1.086       .  S
C130        H708   1.087       .  S
H132        C706   1.087       .  S
C133        C134   1.335       .  D
C133        H135   1.086       .  S
C134        H712   1.087       .  S
H136        C710   1.088       .  S
C137        C138   1.340       .  D
C137        H283   1.082       .  S
C138        C731   1.473       .  S
C138        H716   1.086       .  S
H139        C281   1.081       .  S
H140        C714   1.085       .  S
C141        C588   1.470       .  S
C141        C142   1.344       .  D
C141        H719   1.084       .  S
C142        H288   1.087       .  S
H143        C717   1.084       .  S
H144        C286   1.087       .  S
O145       Cu153   2.022       .  S
O145        C731   1.281       .  A
O146        C732   1.278       .  A
O147        C733   1.277       .  A
O148       Cu153   2.003       .  S
O148        C734   1.276       .  A
O149        C158   1.279       .  A
O150       Cu154   2.008       .  S
O150        C157   1.278       .  A
O151       Cu154   2.009       .  S
O151        C156   1.278   1_455  A
O152        C155   1.276       .  A
Cu153      Cu586   2.376       .  S
Cu154      Cu585   2.375   1_455  S
C155        O721   1.280   1_455  A
C155        C714   1.474       .  S
C156        O722   1.278       .  A
C156        C861   1.472       .  S
C157        O723   1.277   1_455  A
C157        C746   1.465       .  S
C158        O724   1.277   1_455  A
C158        C745   1.468       .  S
O159       Cu167   2.001       .  S
O159        C745   1.276       .  A
O160       Cu167   2.013       .  S
O160        C746   1.278       .  A
O161       Cu167   2.018       .  S
O161        C747   1.278       .  A
O162       Cu167   2.012       .  S
O162        C748   1.278   1_455  A
O163       Cu168   2.001       .  S
O163        C172   1.275       .  A
O164       Cu168   2.007       .  S
O164        C171   1.277       .  A
O165       Cu168   1.996       .  S
O165        C170   1.277       .  A
O166       Cu168   2.017       .  S
O166        C169   1.280       .  A
Cu167      Cu744   2.378   1_455  S
Cu168      Cu743   2.377       .  S
C169        O735   1.276       .  A
C169        C734   1.468       .  S
C170        O736   1.278       .  A
C170        C733   1.466       .  S
C171        O737   1.279       .  A
C171        C273   1.473       .  S
C172        O738   1.278       .  A
C172        C277   1.465       .  S
C173        C257   1.497       .  S
C173        C462   1.422       .  A
C173        C754   1.418   1_455  A
C174        C265   1.498       .  S
C174        C461   1.423       .  A
C174        C751   1.420       .  A
C175        C286   1.500       .  S
C175        C750   1.422       .  A
C175        C176   1.419       .  A
C176        C261   1.490       .  S
C176        C177   1.426       .  A
C177        C270   1.498       .  S
C177        C466   1.419       .  A
C178        C281   1.500       .  S
C178        C749   1.422       .  A
C178        C465   1.423   1_554  A
C179        C242   1.497       .  S
C179        C468   1.419       .  A
C179        C760   1.428   1_455  A
C180        C249   1.498       .  S
C180        C467   1.416       .  A
C180        C757   1.421       .  A
C181        C278   1.492       .  S
C181        C756   1.419       .  A
C181        C182   1.428       .  A
C182        C245   1.500       .  S
C182        C183   1.429       .  A
C183        C253   1.503       .  S
C183        C472   1.423       .  A
C184        C274   1.498       .  S
C184        C755   1.425       .  A
C184        C471   1.423       .  A
O185        C483   1.276   1_545  A
O186       Cu193   1.999       .  S
O186        C340   1.275   1_556  A
O187       Cu193   2.023       .  S
O187        C485   1.280   1_545  A
O188        C486   1.276   1_545  A
O189       Cu194   2.008       .  S
O189        C198   1.277       .  A
O190        C197   1.279       .  A
O191       Cu194   2.000       .  S
O191        C196   1.276       .  A
O192       Cu194   2.003       .  S
O192        C195   1.276       .  A
Cu193      Cu338   2.378   1_545  S
Cu194      Cu337   2.375       .  S
C195        O473   1.277       .  A
C195        C266   1.465       .  S
C196        O330   1.278       .  A
C197        O475   1.278       .  A
C197        C212   1.472       .  S
C198        O476   1.278       .  A
C198        C211   1.465       .  S
O199       Cu207   1.996       .  S
O199        C497   1.277   1_545  A
O200       Cu207   2.000       .  S
O200        C498   1.275       .  A
O201       Cu207   1.999       .  S
O201        C499   1.277   1_545  A
O202       Cu207   2.015       .  S
O202        C500   1.278   1_545  A
O203       Cu208   2.020       .  S
O203        C212   1.279       .  A
O204       Cu208   2.013       .  S
O204        C211   1.278       .  A
O205       Cu208   2.009       .  S
O205        C210   1.277       .  A
O206       Cu208   2.006       .  S
O206        C209   1.276       .  A
Cu207      Cu496   2.377   1_545  S
Cu208      Cu495   2.374       .  S
C209        O487   1.279       .  A
C209        C250   1.470       .  S
C210        O488   1.279       .  A
C210        C254   1.473       .  S
C211        O489   1.277       .  A
C212        O490   1.278       .  A
O213       Cu221   1.993       .  S
O213        C223   1.276       .  A
O214        C224   1.282       .  A
O216       Cu221   2.015       .  S
O216        C226   1.279       .  A
O217       Cu222   2.000       .  S
O217        C226   1.275       .  A
O218       Cu222   2.013       .  S
O218        C225   1.278       .  A
O219        C224   1.274       .  A
O220       Cu222   2.019       .  S
O220        C223   1.279       .  A
Cu221      Cu222   2.376       .  S
C223        C240   1.464       .  S
C224        C239   1.467       .  S
C225        C258   1.472       .  S
C226        C262   1.465       .  S
O227       Cu235   2.003       .  S
O227        C237   1.275       .  A
O228       Cu235   2.016       .  S
O228        C238   1.278       .  A
O229       Cu235   2.029       .  S
O229        C239   1.282       .  A
O230       Cu235   2.013       .  S
O230        C240   1.278       .  A
O231       Cu236   1.997       .  S
O231        C240   1.277       .  A
O232       Cu236   1.988       .  S
O232        C239   1.273       .  A
O233       Cu236   2.022       .  S
O233        C238   1.278       .  A
O234       Cu236   2.018       .  S
O234        C237   1.280       .  A
Cu235      Cu236   2.377       .  S
C237        C241   1.470       .  S
C238        C246   1.474       .  S
C241        C242   1.338       .  D
C241        H243   1.085       .  S
C242        H244   1.088       .  S
C245        C246   1.344       .  D
C245        H247   1.087       .  S
C246        H248   1.085       .  S
C249        C250   1.346       .  D
C249        H539   1.087       .  S
C250        H252   1.086       .  S
H251        C537   1.088       .  S
C253        C254   1.346       .  D
C253        H543   1.087       .  S
C254        H256   1.086       .  S
H255        C541   1.087   1_565  S
C257        C258   1.345   1_554  D
C258        H260   1.085       .  S
C261        C262   1.337   1_554  D
C262        H264   1.086       .  S
C265        H411   1.087       .  S
H267        C409   1.087       .  S
C269        C270   1.339       .  D
C269        H415   1.085       .  S
C270        H272   1.088   1_554  S
H271        C413   1.085       .  S
C273        C274   1.345       .  D
C273        H275   1.085       .  S
C274        H852   1.088       .  S
H276        C850   1.088       .  S
C277        C278   1.337       .  D
C277        H279   1.085       .  S
C278        H856   1.088       .  S
H280        C854   1.087       .  S
C281        C282   1.341   1_554  D
C282        C587   1.475       .  S
C282        H860   1.085       .  S
H284        C858   1.085       .  S
C285        C732   1.473       .  S
C285        C286   1.348   1_556  D
C285        H863   1.085       .  S
H287        C861   1.085       .  S
O289       Cu297   2.021   1_554  S
O289        C875   1.279       .  A
O290       Cu441   2.009       .  S
O290        C876   1.277       .  A
O291       Cu441   1.994       .  S
O291        C877   1.276       .  A
O292       Cu297   2.013   1_554  S
O292        C878   1.277       .  A
O293       Cu442   2.004   1_554  S
O293        C302   1.277       .  A
O294       Cu298   2.017       .  S
O294        C301   1.278       .  A
O295       Cu298   2.019       .  S
O295        C300   1.279   1_455  A
O296       Cu442   2.016       .  S
O296        C299   1.278   1_556  A
Cu297       O434   2.018       .  S
Cu297       O435   2.007       .  S
Cu297     Cu1018   2.376       .  S
Cu298       O437   2.019       .  S
Cu298       O440   2.011       .  S
Cu298     Cu1017   2.373   1_455  S
C299        O865   1.279   1_455  A
C299       C1146   1.479   1_554  S
C300        O866   1.276       .  A
C300       C1005   1.471       .  S
C301        O867   1.278   1_455  A
C301        C890   1.467       .  S
C302        O868   1.279   1_455  A
C302        C889   1.467       .  S
O303       Cu311   2.008       .  S
O303        C889   1.278       .  A
O304       Cu311   2.024       .  S
O304        C890   1.280       .  A
O305       Cu311   2.016       .  S
O305        C891   1.277       .  A
O306       Cu311   2.012       .  S
O306        C892   1.278   1_455  A
O307       Cu312   2.015       .  S
O307        C316   1.277       .  A
O308       Cu312   2.008       .  S
O308        C315   1.277       .  A
O309       Cu312   2.000       .  S
O309        C314   1.277       .  A
O310       Cu312   2.022       .  S
O310        C313   1.280       .  A
Cu311      Cu888   2.377   1_455  S
Cu312      Cu887   2.376       .  S
C313        O879   1.276       .  A
C313        C878   1.467       .  S
C314        O880   1.277       .  A
C314        C877   1.465       .  S
C315        O881   1.278       .  A
C315        C417   1.474       .  S
C316        O882   1.280       .  A
C316        C421   1.477       .  S
C317        C401   1.499       .  S
C317        C898   1.422       .  A
C318        C409   1.496       .  S
C318        C895   1.421   1_545  A
C319        C430   1.492       .  S
C319        C894   1.420   1_565  A
C319        C320   1.419       .  A
C320        C405   1.499       .  S
C320        C321   1.415   1_565  A
C321        C414   1.485   1_545  S
C322        C425   1.497       .  S
C322        C893   1.422       .  A
C323        C386   1.493       .  S
C323        C904   1.427       .  A
C324        C393   1.496       .  S
C324        C901   1.424   1_545  A
C325        C422   1.498       .  S
C325        C900   1.425   1_565  A
C325        C326   1.431       .  A
C326        C389   1.496       .  S
C326        C327   1.425   1_565  A
C327        C397   1.498       .  S
C328        C418   1.500       .  S
C328        C899   1.426       .  A
O329       Cu481   2.015       .  S
O330       Cu337   2.012       .  S
O331       Cu337   2.011       .  S
O332       Cu481   2.001       .  S
O333       Cu338   2.016   1_554  S
O333        C342   1.278       .  A
O334       Cu482   1.994       .  S
O334        C341   1.275       .  A
O335       Cu338   2.011       .  S
O335        C340   1.277   1_566  A
O336       Cu338   2.010       .  S
O336        C339   1.277       .  A
Cu337       O473   2.013       .  S
Cu337       O476   2.005       .  S
Cu338       O478   2.003       .  S
C339        C410   1.466       .  S
C340        C557   1.462       .  S
C341        C356   1.464       .  S
C342        C355   1.467       .  S
O343       Cu351   2.018       .  S
O344       Cu351   2.022       .  S
O345       Cu351   2.009       .  S
O346       Cu351   2.013       .  S
O347       Cu352   2.012       .  S
O347        C356   1.279       .  A
O348       Cu352   2.017       .  S
O348        C355   1.279       .  A
O349       Cu352   1.996       .  S
O349        C354   1.274       .  A
O350       Cu352   1.995       .  S
O350        C353   1.274       .  A
C353        C394   1.465       .  S
C354        C398   1.471       .  S
O357       Cu365   2.008       .  S
O357        C367   1.277       .  A
O358       Cu509   2.008       .  S
O358        C368   1.279       .  A
O359       Cu509   2.000       .  S
O359        C513   1.275       .  A
O360       Cu365   2.008       .  S
O360        C370   1.278       .  A
O361       Cu366   2.017       .  S
O361        C370   1.277       .  A
O362       Cu366   2.023       .  S
O362        C369   1.280       .  A
O363       Cu510   2.006       .  S
O363        C368   1.276       .  A
O364       Cu366   2.017       .  S
O364        C367   1.279       .  A
Cu365       O502   2.022       .  S
Cu365       O503   2.012       .  S
Cu365      Cu366   2.376       .  S
Cu366       O507   1.992       .  S
C367        C384   1.469       .  S
C368        C383   1.465       .  S
C369        O503   1.277       .  A
C369        C402   1.476       .  S
C370        C406   1.475       .  S
O371       Cu379   2.012       .  S
O371        C381   1.276       .  A
O372       Cu379   2.023       .  S
O372        C382   1.280       .  A
O373       Cu379   2.025       .  S
O373        C383   1.280       .  A
O374       Cu379   2.013       .  S
O374        C384   1.278       .  A
O375       Cu380   2.009       .  S
O375        C384   1.278       .  A
O376       Cu380   1.990       .  S
O376        C383   1.275       .  A
O377       Cu380   2.006       .  S
O377        C382   1.276       .  A
O378       Cu380   2.007       .  S
O378        C381   1.278       .  A
Cu379      Cu380   2.377       .  S
C381        C385   1.470       .  S
C382        C390   1.472       .  S
C385        C386   1.341       .  D
C385        H387   1.085       .  S
C386        H388   1.086       .  S
C389        C390   1.340       .  D
C389        H391   1.087       .  S
C390        H392   1.085       .  S
C393        C394   1.341   1_545  D
C394        H396   1.086       .  S
C397        C398   1.344   1_545  D
C398        H400   1.086       .  S
C401        C402   1.346       .  D
C401        H547   1.086       .  S
C402        H404   1.085       .  S
H403        C545   1.087       .  S
C405        C406   1.344       .  D
C405        H551   1.080       .  S
C406        H408   1.085       .  S
H407        C549   1.082       .  S
C409        C554   1.345   1_545  D
C410        C553   1.344   1_566  D
C410        H556   1.085       .  S
H412        C554   1.085       .  S
C413        C484   1.456       .  S
C413        C414   1.333   1_545  D
C414        H416   1.087       .  S
C417        C418   1.344       .  D
C417        H419   1.083       .  S
C418        H996   1.084       .  S
H420        C994   1.085       .  S
C421        C422   1.342       .  D
C421        H423   1.085       .  S
C422       H1000   1.088       .  S
H424        C998   1.087       .  S
C425        C426   1.341       .  D
C425        H571   1.087       .  S
C426       C1019   1.471       .  S
C426       H1004   1.084       .  S
H427        C569   1.087       .  S
H428       C1002   1.084       .  S
C429        C876   1.464       .  S
C429        C430   1.340       .  D
C429       H1007   1.085       .  S
C430        H576   1.087       .  S
H431       C1005   1.086       .  S
H432        C574   1.088       .  S
O433       Cu441   2.016       .  S
O433       C1019   1.279       .  A
O434       C1020   1.278       .  A
O435       C1021   1.276       .  A
O436       Cu441   2.002       .  S
O436       C1022   1.276       .  A
O437        C446   1.279       .  A
O438       Cu442   1.995       .  S
O438        C445   1.277   1_455  A
O439       Cu442   2.022       .  S
O439        C444   1.279   1_455  A
O440        C443   1.277       .  A
Cu441      Cu874   2.374       .  S
Cu442      Cu873   2.375   1_455  S
C443       O1009   1.278   1_455  A
C443       C1002   1.471       .  S
C444       O1010   1.277       .  A
C444       C1149   1.476       .  S
C445       O1011   1.277       .  A
C445       C1034   1.461       .  S
C446       O1012   1.277   1_455  A
C446       C1033   1.470       .  S
O447       Cu455   2.018       .  S
O447       C1033   1.278       .  A
O448       Cu455   1.988       .  S
O448       C1034   1.275   1_455  A
O449       Cu455   2.017       .  S
O449       C1035   1.280   1_455  A
O450       Cu455   2.010       .  S
O450       C1036   1.277       .  A
O451       Cu456   2.002       .  S
O451        C460   1.276       .  A
O452       Cu456   2.001       .  S
O452        C459   1.274       .  A
O453       Cu456   2.017       .  S
O453        C458   1.279       .  A
O454       Cu456   2.010       .  S
O454        C457   1.279       .  A
Cu455     Cu1032   2.377   1_455  S
Cu456     Cu1031   2.377       .  S
C457       O1023   1.278       .  A
C457       C1022   1.471       .  S
C458       O1024   1.275       .  A
C458       C1021   1.462       .  S
C459       O1025   1.281       .  A
C459        C561   1.474       .  S
C460       O1026   1.278       .  A
C460        C565   1.470       .  S
C461        C545   1.490       .  S
C461       C1042   1.422   1_455  A
C462        C553   1.495       .  S
C462       C1039   1.424   1_445  A
C463        C574   1.497       .  S
C463       C1038   1.419   1_565  A
C463        C464   1.418   1_554  A
C464        C549   1.496       .  S
C464        C465   1.417   1_565  A
C465        C558   1.490   1_545  S
C466        C569   1.502       .  S
C466       C1037   1.421       .  A
C467        C530   1.494       .  S
C467       C1048   1.416       .  A
C468        C537   1.490       .  S
C468       C1045   1.417   1_545  A
C469        C566   1.495       .  S
C469       C1044   1.419   1_565  A
C469        C470   1.414       .  A
C470        C533   1.498       .  S
C470        C471   1.419   1_565  A
C471        C541   1.491       .  S
C472        C562   1.498       .  S
C472       C1043   1.417       .  A
O474       Cu481   2.013       .  S
O475       Cu481   2.012   1_556  S
O477       Cu482   2.003       .  S
O477        C486   1.277       .  A
O478        C485   1.277       .  A
O479       Cu482   2.006       .  S
O479        C484   1.277   1_565  A
O480       Cu482   2.014       .  S
O480        C483   1.278       .  A
C483        C554   1.467       .  S
C485        C500   1.470       .  S
C486        C499   1.459       .  S
O487       Cu495   2.020       .  S
O488       Cu495   2.023       .  S
O489       Cu495   2.001       .  S
O490       Cu495   2.010       .  S
O491       Cu496   2.010       .  S
O491        C500   1.278       .  A
O492       Cu496   1.999       .  S
O492        C499   1.277       .  A
O493       Cu496   2.012       .  S
O493        C498   1.278   1_565  A
O494       Cu496   2.006       .  S
O494        C497   1.276       .  A
C497        C538   1.464       .  S
C498        C542   1.464       .  S
O501       Cu509   1.994   1_556  S
O501        C511   1.275       .  A
O502        C512   1.279       .  A
O504       Cu509   2.003       .  S
O504        C514   1.278       .  A
O505       Cu510   2.014       .  S
O505        C514   1.277       .  A
O506       Cu510   2.014       .  S
O506        C513   1.279       .  A
O507        C512   1.276       .  A
O508       Cu510   2.021   1_556  S
O508        C511   1.280       .  A
Cu509      Cu510   2.378       .  S
C511        C528   1.466       .  S
C512        C527   1.466       .  S
C513        C546   1.466       .  S
C514        C550   1.471       .  S
O515       Cu523   2.005       .  S
O515        C525   1.278       .  A
O516       Cu523   2.006       .  S
O516        C526   1.276       .  A
O517       Cu523   1.988       .  S
O517        C527   1.275       .  A
O518       Cu523   2.008       .  S
O518        C528   1.277       .  A
O519       Cu524   2.007       .  S
O519        C528   1.278       .  A
O520       Cu524   2.025       .  S
O520        C527   1.280       .  A
O521       Cu524   2.003       .  S
O521        C526   1.278       .  A
O522       Cu524   2.008       .  S
O522        C525   1.276       .  A
Cu523      Cu524   2.378       .  S
C525        C529   1.469       .  S
C526        C534   1.467       .  S
C529        C530   1.342       .  D
C529        H531   1.085       .  S
C530        H532   1.088       .  S
C533        C534   1.341       .  D
C533        H535   1.088       .  S
C534        H536   1.084       .  S
C537        C538   1.337   1_545  D
C538        H540   1.085       .  S
C541        C542   1.341       .  D
C542        H544   1.085       .  S
C545        C546   1.341       .  D
C546        H548   1.085   1_554  S
C549        C550   1.343   1_556  D
C550        H552   1.084       .  S
C557        C558   1.337   1_544  D
C558        H560   1.087       .  S
C561        C562   1.341       .  D
C561        H563   1.086       .  S
C562       H1140   1.088       .  S
H564       C1138   1.087       .  S
C565        C566   1.340       .  D
C565        H567   1.085       .  S
C566       H1144   1.088       .  S
H568       C1142   1.088       .  S
C569        C570   1.343       .  D
C570        C875   1.472       .  S
C570       H1148   1.084   1_554  S
H572       C1146   1.084       .  S
C573       C1020   1.470       .  S
C573        C574   1.342   1_556  D
C573       H1151   1.085       .  S
H575       C1149   1.085       .  S
O577       Cu585   2.010       .  S
O578       Cu729   2.019       .  S
O579       Cu729   1.995       .  S
O580       Cu585   2.009   1_554  S
O581       Cu730   2.013   1_554  S
O581        C590   1.280       .  A
O582       Cu586   2.007       .  S
O582        C589   1.279       .  A
O583       Cu586   2.005       .  S
O583        C588   1.276       .  A
O584       Cu730   2.008       .  S
O584        C587   1.276       .  A
Cu585       O722   2.016       .  S
Cu585       O723   2.005       .  S
Cu586       O725   2.018       .  S
Cu586       O728   2.004       .  S
O591       Cu599   1.991       .  S
O592       Cu599   1.980       .  S
O593       Cu599   2.032       .  S
O594       Cu599   2.030       .  S
O595       Cu600   2.002       .  S
O595        C604   1.276       .  A
O596       Cu600   1.997       .  S
O596        C603   1.275   1_655  A
O597       Cu600   1.997       .  S
O597        C602   1.277   1_655  A
O598       Cu600   2.021       .  S
O598        C601   1.280       .  A
C603        C705   1.463       .  S
C604        C709   1.468       .  S
C605        C689   1.492       .  S
C605        C894   1.422       .  A
C606        C697   1.499       .  S
C606        C893   1.423       .  A
C607        C718   1.503       .  S
C607        C608   1.424   1_455  A
C608        C693   1.489       .  S
C608        C609   1.419       .  A
C609        C702   1.502       .  S
C609        C898   1.417   1_655  A
C610        C713   1.498   1_455  S
C610        C897   1.416   1_455  A
C611        C674   1.496       .  S
C611        C900   1.419       .  A
C612        C681   1.503       .  S
C612        C899   1.413       .  A
C613        C710   1.497       .  S
C613        C614   1.426   1_455  A
C614        C677   1.488       .  S
C614        C615   1.420       .  A
C615        C685   1.508       .  S
C615        C904   1.421   1_655  A
C616        C706   1.490   1_455  S
C616        C903   1.421   1_455  A
O617       Cu769   2.030       .  S
O617        C915   1.281   1_545  A
O618       Cu625   2.014       .  S
O618       C1060   1.278       .  A
O619       Cu625   2.029       .  S
O619        C917   1.279       .  A
O620       Cu769   1.986   1_554  S
O620        C918   1.273   1_545  A
O621       Cu626   2.002       .  S
O621        C630   1.277       .  A
O622       Cu770   2.010       .  S
O622        C629   1.278       .  A
O623       Cu626   2.004       .  S
O623        C628   1.276       .  A
O624       Cu626   2.007   1_556  S
O624        C627   1.277       .  A
Cu625       O761   2.017       .  S
Cu625       O764   1.996       .  S
Cu625     Cu1058   2.378   1_545  S
Cu626       O766   2.014   1_554  S
Cu626     Cu1057   2.374       .  S
C627        O905   1.278   1_556  A
C627        C698   1.468       .  S
C628       O1050   1.278       .  A
C628        C845   1.470       .  S
C629        O907   1.277       .  A
C629        C644   1.466       .  S
C630        O908   1.277       .  A
C630        C643   1.462       .  S
O631       Cu639   2.002       .  S
O631        C929   1.277   1_545  A
O632       Cu639   2.005       .  S
O632        C930   1.275       .  A
O633       Cu639   2.015       .  S
O633        C931   1.280   1_545  A
O634       Cu639   2.036       .  S
O634        C932   1.281       .  A
O635       Cu640   2.005       .  S
O635        C644   1.277       .  A
O636       Cu640   2.000       .  S
O636        C643   1.276       .  A
O637       Cu640   2.020       .  S
O637        C642   1.279       .  A
O638       Cu640   2.013       .  S
O638        C641   1.278       .  A
Cu639      Cu928   2.376   1_545  S
Cu640      Cu927   2.374       .  S
C641        O919   1.277       .  A
C641        C682   1.470       .  S
C642        O920   1.278       .  A
C642        C686   1.475       .  S
C643        O921   1.278       .  A
C644        O922   1.278       .  A
O645       Cu653   2.029       .  S
O645        C655   1.280       .  A
O646       Cu797   2.000   1_554  S
O646        C656   1.275       .  A
O647       Cu797   2.014       .  S
O647        C801   1.278       .  A
O648       Cu653   1.992       .  S
O648        C658   1.273       .  A
O649       Cu654   2.022       .  S
O649        C658   1.280       .  A
O650       Cu654   2.025       .  S
O650        C657   1.280       .  A
O651       Cu798   2.028       .  S
O651        C656   1.281       .  A
O652       Cu654   1.998       .  S
O652        C655   1.277       .  A
Cu653       O790   2.021       .  S
Cu653       O791   1.991       .  S
Cu653      Cu654   2.375       .  S
Cu654       O795   1.997       .  S
C655        C672   1.471       .  S
C656        C671   1.471       .  S
C657        O791   1.274       .  A
C657        C690   1.466       .  S
C658        C694   1.464       .  S
O659       Cu667   2.023       .  S
O659        C669   1.281       .  A
O660       Cu667   2.020       .  S
O660        C670   1.279       .  A
O661       Cu667   2.001       .  S
O661        C671   1.275       .  A
O662       Cu667   1.997       .  S
O662        C672   1.276       .  A
O663       Cu668   2.030       .  S
O663        C672   1.280       .  A
O664       Cu668   2.027       .  S
O664        C671   1.282       .  A
O665       Cu668   1.991       .  S
O665        C670   1.273       .  A
O666       Cu668   1.993       .  S
O666        C669   1.273       .  A
Cu667      Cu668   2.376       .  S
C669        C673   1.468       .  S
C670        C678   1.463       .  S
C673        C674   1.338       .  D
C673        H675   1.086       .  S
C674        H676   1.088       .  S
C677        C678   1.337       .  D
C677        H679   1.088       .  S
C678        H680   1.086       .  S
C681        C682   1.346       .  D
C681        H971   1.086       .  S
C682        H684   1.085       .  S
H683        C969   1.087       .  S
C685        C686   1.348       .  D
C685        H975   1.085       .  S
C686        H688   1.084       .  S
H687        C973   1.085   1_565  S
C689        C690   1.341       .  D
C689        H835   1.087       .  S
C690        H692   1.086       .  S
H691        C833   1.087       .  S
C693        C694   1.338       .  D
C693        H839   1.088       .  S
C694        H696   1.086       .  S
H695        C837   1.088       .  S
C697        C842   1.344       .  D
C697       H1131   1.087       .  S
C698        C841   1.345   1_556  D
C698        H844   1.085       .  S
H699       C1129   1.087       .  S
H700        C842   1.085       .  S
C701        C772   1.468       .  S
C701        C702   1.344       .  D
C701       H1135   1.084       .  S
C702        H704   1.087       .  S
H703       C1133   1.085       .  S
C705        C706   1.341   1_455  D
C705        H707   1.084       .  S
C709        C710   1.339   1_655  D
C709        H711   1.085       .  S
C713        C714   1.341   1_655  D
C713        H859   1.082       .  S
H715        C857   1.087       .  S
C717        C718   1.345   1_655  D
C718        H864   1.087       .  S
H720        C862   1.087       .  S
O721       Cu729   2.017       .  S
O724       Cu729   2.006       .  S
O725        C734   1.280       .  A
O726       Cu730   2.015       .  S
O726        C733   1.279       .  A
O727       Cu730   2.011       .  S
O727        C732   1.277       .  A
O728        C731   1.275       .  A
O735       Cu743   2.006       .  S
O736       Cu743   2.017       .  S
O737       Cu743   2.023       .  S
O738       Cu743   2.012       .  S
O739       Cu744   2.001       .  S
O739        C748   1.275       .  A
O740       Cu744   2.004       .  S
O740        C747   1.277   1_655  A
O741       Cu744   1.998       .  S
O741        C746   1.277   1_655  A
O742       Cu744   2.020       .  S
O742        C745   1.280   1_655  A
C747        C849   1.469       .  S
C748        C853   1.466       .  S
C749        C833   1.498       .  S
C749       C1038   1.421       .  A
C750        C841   1.498       .  S
C750       C1037   1.422       .  A
C751        C862   1.500       .  S
C751        C752   1.417   1_455  A
C752        C837   1.490       .  S
C752        C753   1.427       .  A
C753        C846   1.497       .  S
C753       C1042   1.419       .  A
C754        C857   1.494       .  S
C754       C1041   1.413   1_554  A
C755        C818   1.493       .  S
C755       C1044   1.419       .  A
C756        C825   1.495       .  S
C756       C1043   1.414       .  A
C757        C854   1.492       .  S
C757        C758   1.428   1_455  A
C758        C821   1.499       .  S
C758        C759   1.427       .  A
C759        C829   1.498       .  S
C759       C1048   1.419   1_655  A
C760        C850   1.493       .  S
C760       C1047   1.424       .  A
O761       C1059   1.279   1_545  A
O762       Cu769   2.038       .  S
O762        C916   1.283   1_546  A
O763       Cu769   1.989       .  S
O763       C1061   1.274   1_545  A
O764       C1062   1.276       .  A
O765       Cu770   2.011       .  S
O765        C774   1.278       .  A
O766        C773   1.278       .  A
O767       Cu770   2.004       .  S
O767        C772   1.276       .  A
O768       Cu770   2.005       .  S
O768        C771   1.276       .  A
Cu769      Cu914   2.375   1_545  S
Cu770      Cu913   2.375       .  S
C771       O1049   1.278       .  A
C771        C842   1.468       .  S
C772        O906   1.278       .  A
C773       O1051   1.279       .  A
C773        C788   1.471       .  S
C774       O1052   1.278       .  A
C774        C787   1.466       .  S
O775       Cu783   1.994       .  S
O775       C1073   1.276   1_545  A
O776       Cu783   2.002       .  S
O776       C1074   1.275       .  A
O777       Cu783   2.002       .  S
O777       C1075   1.277       .  A
O778       Cu783   2.013       .  S
O778       C1076   1.280   1_545  A
O779       Cu784   2.020       .  S
O779        C788   1.279       .  A
O780       Cu784   2.016       .  S
O780        C787   1.279       .  A
O781       Cu784   2.002       .  S
O781        C786   1.276       .  A
O782       Cu784   2.000       .  S
O782        C785   1.275       .  A
Cu783     Cu1072   2.375   1_545  S
Cu784     Cu1071   2.374       .  S
C785       O1063   1.279       .  A
C785        C826   1.468       .  S
C786       O1064   1.279       .  A
C786        C830   1.469       .  S
C787       O1065   1.277       .  A
C788       O1066   1.277       .  A
O789       Cu797   1.988       .  S
O789        C799   1.275       .  A
O790        C800   1.281       .  A
O792       Cu797   2.016       .  S
O792        C802   1.279       .  A
O793       Cu798   1.996   1_556  S
O793        C802   1.274       .  A
O794       Cu798   2.006       .  S
O794        C801   1.276   1_554  A
O795        C800   1.274       .  A
O796       Cu798   2.019   1_556  S
O796        C799   1.280       .  A
Cu797      Cu798   2.376   1_556  S
C799        C816   1.463       .  S
C800        C815   1.466       .  S
C801        C834   1.470       .  S
C802        C838   1.465       .  S
O803       Cu811   1.999       .  S
O803        C813   1.275       .  A
O804       Cu811   2.012       .  S
O804        C814   1.277       .  A
O805       Cu811   2.026       .  S
O805        C815   1.281       .  A
O806       Cu811   2.008       .  S
O806        C816   1.277       .  A
O807       Cu812   2.000       .  S
O807        C816   1.277       .  A
O808       Cu812   1.990       .  S
O808        C815   1.274       .  A
O809       Cu812   2.018       .  S
O809        C814   1.278       .  A
O810       Cu812   2.011       .  S
O810        C813   1.279       .  A
Cu811      Cu812   2.378       .  S
C813        C817   1.466       .  S
C814        C822   1.472       .  S
C817        C818   1.337       .  D
C817        H819   1.085       .  S
C818        H820   1.088       .  S
C821        C822   1.343       .  D
C821        H823   1.088       .  S
C822        H824   1.085       .  S
C825        C826   1.343       .  D
C825       H1115   1.087       .  S
C826        H828   1.087       .  S
H827       C1113   1.088       .  S
C829        C830   1.343       .  D
C829       H1119   1.088       .  S
C830        H832   1.086       .  S
H831       C1117   1.087       .  S
C833        C834   1.346   1_554  D
C834        H836   1.085       .  S
C837        C838   1.336   1_554  D
C838        H840   1.086       .  S
C841        H987   1.087       .  S
H843        C985   1.087       .  S
C845        C846   1.339       .  D
C845        H991   1.084       .  S
C846        H848   1.087   1_554  S
H847        C989   1.086       .  S
C849        C850   1.343   1_455  D
C849        H851   1.085       .  S
C853        C854   1.337   1_655  D
C853        H855   1.085       .  S
C857        C858   1.340   1_654  D
C861        C862   1.347   1_656  D
O865       Cu873   2.022   1_554  S
O866      Cu1017   2.005       .  S
O867      Cu1017   2.003       .  S
O868       Cu873   2.014   1_554  S
O869      Cu1018   2.006   1_554  S
O869        C878   1.278       .  A
O870       Cu874   2.019       .  S
O870        C877   1.279       .  A
O871       Cu874   2.006       .  S
O871        C876   1.276       .  A
O872      Cu1018   2.006   1_554  S
O872        C875   1.276       .  A
Cu873      O1010   2.017       .  S
Cu873      O1011   2.011       .  S
Cu874      O1013   2.026       .  S
Cu874      O1016   2.004       .  S
O879       Cu887   1.995       .  S
O880       Cu887   2.013       .  S
O881       Cu887   2.022       .  S
O882       Cu887   2.025       .  S
O883       Cu888   2.010       .  S
O883        C892   1.277       .  A
O884       Cu888   2.008       .  S
O884        C891   1.278   1_655  A
O885       Cu888   1.993       .  S
O885        C890   1.276   1_655  A
O886       Cu888   2.011       .  S
O886        C889   1.278   1_655  A
C891        C993   1.471       .  S
C892        C997   1.468       .  S
C893        C977   1.496       .  S
C894        C985   1.496       .  S
C895       C1006   1.498       .  S
C895        C896   1.419   1_455  A
C896        C981   1.497       .  S
C896        C897   1.421   1_565  A
C897        C990   1.486       .  S
C898       C1001   1.497   1_455  S
C899        C962   1.484       .  S
C900        C969   1.496       .  S
C901        C998   1.495       .  S
C901        C902   1.425   1_455  A
C902        C965   1.502       .  S
C902        C903   1.422   1_565  A
C903        C973   1.500       .  S
C904        C994   1.496   1_455  S
O905      Cu1057   2.017       .  S
O906       Cu913   2.014       .  S
O907       Cu913   2.006       .  S
O908      Cu1057   2.003       .  S
O909       Cu914   2.036   1_554  S
O909        C918   1.283       .  A
O910      Cu1058   1.994       .  S
O910        C917   1.277   1_565  A
O911       Cu914   1.983   1_554  S
O911        C916   1.272       .  A
O912       Cu914   1.985       .  S
O912        C915   1.272       .  A
Cu913      O1049   2.016       .  S
Cu913      O1052   2.005       .  S
Cu914      O1054   2.040       .  S
C915        C986   1.463       .  S
C916       C1133   1.469       .  S
C917        C932   1.470       .  S
C918        C931   1.469       .  S
O919       Cu927   2.011       .  S
O920       Cu927   2.015       .  S
O921       Cu927   2.007       .  S
O922       Cu927   2.010       .  S
O923       Cu928   1.987       .  S
O923        C932   1.275   1_565  A
O924       Cu928   2.010       .  S
O924        C931   1.276       .  A
O925       Cu928   2.022       .  S
O925        C930   1.280   1_565  A
O926       Cu928   2.019       .  S
O926        C929   1.278       .  A
C929        C970   1.470       .  S
C930        C974   1.473       .  S
O933       Cu941   2.002       .  S
O933        C943   1.277       .  A
O934      Cu1085   2.012       .  S
O934        C944   1.280       .  A
O935      Cu1085   1.995   1_556  S
O935       C1089   1.274       .  A
O936       Cu941   2.018       .  S
O936        C946   1.279       .  A
O937       Cu942   1.998       .  S
O937        C946   1.275       .  A
O938       Cu942   2.006       .  S
O938        C945   1.277       .  A
O939      Cu1086   1.993       .  S
O939        C944   1.274       .  A
O940       Cu942   2.008       .  S
O940        C943   1.278       .  A
Cu941      O1078   2.010       .  S
Cu941      O1079   2.019       .  S
Cu941      Cu942   2.376       .  S
Cu942      O1083   2.012       .  S
C943        C960   1.463       .  S
C944        C959   1.462       .  S
C945       O1079   1.278       .  A
C945        C978   1.472       .  S
C946        C982   1.467       .  S
O947       Cu955   1.992       .  S
O947        C957   1.273       .  A
O948       Cu955   2.007       .  S
O948        C958   1.277       .  A
O949       Cu955   2.020       .  S
O949        C959   1.281       .  A
O950       Cu955   2.005       .  S
O950        C960   1.278       .  A
O951       Cu956   2.001       .  S
O951        C960   1.276       .  A
O952       Cu956   1.985       .  S
O952        C959   1.273       .  A
O953       Cu956   2.025       .  S
O953        C958   1.279       .  A
O954       Cu956   2.018       .  S
O954        C957   1.280       .  A
Cu955      Cu956   2.378       .  S
C957        C961   1.464       .  S
C958        C966   1.474       .  S
C961        C962   1.334       .  D
C961        H963   1.086       .  S
C962        H964   1.087       .  S
C965        C966   1.343       .  D
C965        H967   1.086       .  S
C966        H968   1.085       .  S
C969        C970   1.346   1_545  D
C970        H972   1.085       .  S
C973        C974   1.343       .  D
C974        H976   1.085       .  S
C977        C978   1.346       .  D
C977       H1123   1.086       .  S
C978        H980   1.084       .  S
H979       C1121   1.087       .  S
C981        C982   1.338       .  D
C981       H1127   1.087       .  S
C982        H984   1.080       .  S
H983       C1125   1.088       .  S
C985       C1130   1.343   1_545  D
C986       C1129   1.339   1_566  D
C986       H1132   1.086       .  S
H988       C1130   1.085       .  S
C989       C1060   1.462       .  S
C989        C990   1.335       .  D
C990        H992   1.086   1_545  S
C993        C994   1.343   1_455  D
C993        H995   1.085       .  S
C997        C998   1.341   1_655  D
C997        H999   1.085       .  S
C1001      C1002   1.344   1_655  D
C1001      H1147   1.087       .  S
H1003      C1145   1.087       .  S
C1005      C1006   1.344   1_655  D
C1006      H1152   1.087       .  S
H1008      C1150   1.088   1_455  S
O1009     Cu1017   2.006       .  S
O1012     Cu1017   2.008       .  S
O1013      C1022   1.280       .  A
O1014     Cu1018   2.000       .  S
O1014      C1021   1.278       .  A
O1015     Cu1018   2.012       .  S
O1015      C1020   1.277       .  A
O1016      C1019   1.275       .  A
O1023     Cu1031   2.018       .  S
O1024     Cu1031   1.989       .  S
O1025     Cu1031   2.027       .  S
O1026     Cu1031   2.017       .  S
O1027     Cu1032   2.015       .  S
O1027      C1036   1.279   1_655  A
O1028     Cu1032   2.011       .  S
O1028      C1035   1.276       .  A
O1029     Cu1032   2.017       .  S
O1029      C1034   1.279       .  A
O1030     Cu1032   2.009       .  S
O1030      C1033   1.278   1_655  A
C1035      C1137   1.475       .  S
C1036      C1141   1.472       .  S
C1037      C1121   1.494       .  S
C1038      C1129   1.490       .  S
C1039      C1150   1.502       .  S
C1039      C1040   1.427   1_554  A
C1040      C1125   1.489       .  S
C1040      C1041   1.420   1_565  A
C1041      C1134   1.499       .  S
C1042      C1145   1.508       .  S
C1043      C1106   1.496       .  S
C1044      C1113   1.494       .  S
C1045      C1142   1.497   1_455  S
C1045      C1046   1.410   1_455  A
C1046      C1109   1.488       .  S
C1046      C1047   1.418   1_565  A
C1047      C1117   1.499   1_545  S
C1048      C1138   1.499       .  S
O1050     Cu1057   2.014       .  S
O1051     Cu1057   2.014   1_556  S
O1053     Cu1058   2.001       .  S
O1053      C1062   1.278   1_565  A
O1054      C1061   1.283       .  A
O1055     Cu1058   1.993       .  S
O1055      C1060   1.274   1_565  A
O1056     Cu1058   2.002       .  S
O1056      C1059   1.276       .  A
C1059      C1130   1.468       .  S
C1061      C1076   1.471       .  S
C1062      C1075   1.459       .  S
O1063     Cu1071   2.020       .  S
O1064     Cu1071   2.021       .  S
O1065     Cu1071   2.002       .  S
O1066     Cu1071   2.008       .  S
O1067     Cu1072   2.015       .  S
O1067      C1076   1.276       .  A
O1068     Cu1072   1.996       .  S
O1068      C1075   1.276   1_565  A
O1069     Cu1072   2.027       .  S
O1069      C1074   1.281   1_565  A
O1070     Cu1072   2.016       .  S
O1070      C1073   1.278       .  A
C1073      C1114   1.468       .  S
C1074      C1118   1.471       .  S
O1077     Cu1085   2.020   1_556  S
O1077      C1087   1.280       .  A
O1078      C1088   1.277       .  A
O1080     Cu1085   1.992       .  S
O1080      C1090   1.273       .  A
O1081     Cu1086   2.027       .  S
O1081      C1090   1.280       .  A
O1082     Cu1086   2.030       .  S
O1082      C1089   1.281   1_554  A
O1083      C1088   1.278       .  A
O1084     Cu1086   2.001   1_556  S
O1084      C1087   1.276       .  A
Cu1085    Cu1086   2.374       .  S
C1087      C1104   1.468       .  S
C1088      C1103   1.469       .  S
C1089      C1122   1.469       .  S
C1090      C1126   1.466       .  S
O1091     Cu1099   1.988       .  S
O1091      C1101   1.276       .  A
O1092     Cu1099   1.987       .  S
O1092      C1102   1.273       .  A
O1093     Cu1099   2.005       .  S
O1093      C1103   1.277       .  A
O1094     Cu1099   2.019       .  S
O1094      C1104   1.280       .  A
O1095     Cu1100   2.004       .  S
O1095      C1104   1.276       .  A
O1096     Cu1100   2.018       .  S
O1096      C1103   1.279       .  A
O1097     Cu1100   2.008       .  S
O1097      C1102   1.279       .  A
O1098     Cu1100   2.015       .  S
O1098      C1101   1.278       .  A
Cu1099    Cu1100   2.378       .  S
C1101      C1105   1.468       .  S
C1102      C1110   1.461       .  S
C1105      C1106   1.345       .  D
C1105      H1107   1.084       .  S
C1106      H1108   1.088       .  S
C1109      C1110   1.336       .  D
C1109      H1111   1.088       .  S
C1110      H1112   1.085       .  S
C1113      C1114   1.340   1_545  D
C1114      H1116   1.085       .  S
C1117      C1118   1.342   1_565  D
C1118      H1120   1.085       .  S
C1121      C1122   1.343   1_554  D
C1122      H1124   1.086       .  S
C1125      C1126   1.338   1_556  D
C1126      H1128   1.086       .  S
C1133      C1134   1.338   1_564  D
C1134      H1136   1.087       .  S
C1137      C1138   1.344   1_655  D
C1137      H1139   1.085       .  S
C1141      C1142   1.339   1_455  D
C1141      H1143   1.086       .  S
C1145      C1146   1.347   1_654  D
C1149      C1150   1.343   1_556  D
