geometry optimzed in LAMMPS
_audit_creation_date              2020-12-01 
_audit_creation_method            'lammps2cif' 
_symmetry_space_group_name_H-M    'P1' 
_symmetry_Int_Tables_number       1 
_symmetry_cell_setting            triclinic 
loop_ 
_symmetry_equiv_pos_as_xyz 
  x,y,z 
_cell_length_a                    35.92820302 
_cell_length_b                    35.73803859736583 
_cell_length_c                    34.57563904297115 
_cell_angle_alpha                 90.16625203140981 
_cell_angle_beta                  89.53130561445474 
_cell_angle_gamma                 119.86682921973652 
loop_ 
_atom_site_label 
_atom_site_type_symbol 
_atom_site_fract_x 
_atom_site_fract_y 
_atom_site_fract_z 
_atom_site_charge 
C1          C  0.33348673  0.16692775  0.01852020     0.30300
C2          C  0.33196395  0.16692959  0.43902948     0.30300
C3          C  0.35059215  0.14008456  0.99830126    -0.05900
C4          C  0.28890749  0.14775045  0.99988364    -0.06700
C5          C  0.35860500  0.21089005  0.99867588    -0.06600
C6          C  0.35110544  0.14083780  0.45785237    -0.05900
C7          C  0.28824540  0.14865013  0.45963023    -0.06700
C8          C  0.35931758  0.21130584  0.45841121    -0.06600
C9          C  0.37226518  0.11912061  0.44603735    -0.32000
N10         N  0.38228407  0.10405415  0.47790803     0.14500
C11         C  0.36858685  0.11588372  0.00973639    -0.32000
H12         H  0.37237861  0.10802953  0.03909242     0.16500
C13         C  0.24577168  0.12890924  0.44850166    -0.30900
N14         N  0.22107199  0.11481176  0.98088537     0.13300
C15         C  0.24678817  0.12497846  0.01210477    -0.30900
C16         C  0.38495840  0.25399068  0.44732646    -0.31200
N17         N  0.39724120  0.27865281  0.97972762     0.13800
H18         H  0.39310142  0.26639365  0.41813904     0.16400
C19         C  0.38150330  0.25275205  0.01111780    -0.31200
H20         H  0.38623208  0.26372988  0.04083481     0.16400
H21         H  0.23519371  0.11571545  0.04145663     0.16400
H22         H  0.38118444  0.11571807  0.41683326     0.16500
H23         H  0.23376086  0.12400286  0.41924031     0.16400
C24         C  0.33232822  0.16522101  0.18912692     0.30300
C25         C  0.33174339  0.16491903  0.26860588     0.30300
C26         C  0.35841193  0.14647657  0.20865948    -0.05900
C27         C  0.35036603  0.20945438  0.20878601    -0.06700
C28         C  0.28805970  0.13795422  0.20880910    -0.06600
C29         C  0.35875305  0.14755817  0.24912751    -0.05900
C30         C  0.35081940  0.20939264  0.24905384    -0.06700
C31         C  0.28821524  0.13937581  0.24901054    -0.06600
C32         C  0.38340892  0.13042164  0.26139256    -0.32000
N33         N  0.39627051  0.11693769  0.23007625     0.14500
C34         C  0.38111309  0.12600865  0.19773124    -0.32000
H35         H  0.38520345  0.11693644  0.16881085     0.16500
C36         C  0.37380036  0.25184824  0.26039620    -0.30900
N37         N  0.38464666  0.27723483  0.22859976     0.13300
C38         C  0.37074973  0.25197703  0.19670544    -0.30900
C39         C  0.24648403  0.11729179  0.26169564    -0.31200
N40         N  0.22085049  0.10129822  0.23049852     0.13800
H41         H  0.23542391  0.11332377  0.29142633     0.16400
C42         C  0.24556836  0.11257836  0.19801602    -0.31200
H43         H  0.23335148  0.10413453  0.16892304     0.16400
H44         H  0.37638541  0.26361226  0.16717563     0.16400
H45         H  0.39091759  0.12713173  0.29098068     0.16500
H46         H  0.38299753  0.26389659  0.28953307     0.16400
C47         C  0.16806702  0.33540854  0.06102875     0.30300
C48         C  0.16831471  0.33661222  0.48152196     0.30300
C49         C  0.14826559  0.36020087  0.04205354    -0.05900
C50         C  0.21243659  0.35420466  0.04108978    -0.06700
C51         C  0.14344894  0.29056183  0.04097570    -0.06600
C52         C  0.14706318  0.35941336  0.50183718    -0.05900
C53         C  0.21205930  0.35584914  0.50089852    -0.06700
C54         C  0.14345742  0.29162748  0.50046364    -0.06600
C55         C  0.12350197  0.37817077  0.49096627    -0.32000
N56         N  0.11351986  0.39332150  0.02296053     0.14500
C57         C  0.12807392  0.38241685  0.05459258    -0.32000
H58         H  0.12349864  0.38925600  0.08420926     0.16500
C59         C  0.25366855  0.37497131  0.48797870    -0.30900
N60         N  0.27946283  0.38404740  0.01897802     0.13300
C61         C  0.25493407  0.37072644  0.05158716    -0.32100
C62         C  0.11958779  0.24973680  0.48778822    -0.31200
N63         N  0.10612954  0.22322118  0.01890484     0.13800
H64         H  0.11223320  0.23897025  0.45812329     0.16400
C65         C  0.12073891  0.24730243  0.05149584    -0.31200
H66         H  0.11581684  0.23397702  0.08035262     0.16400
H67         H  0.26723387  0.37362430  0.08054522     0.16400
H68         H  0.11412685  0.38080066  0.46190212     0.16500
H69         H  0.26451801  0.38165097  0.45817957     0.16400
C70         C  0.16681525  0.33252898  0.23166898     0.30300
C71         C  0.16816297  0.33280434  0.31117320     0.30300
C72         C  0.14276007  0.35225360  0.25200675    -0.05900
C73         C  0.14846022  0.28817826  0.25125343    -0.06700
C74         C  0.21142569  0.35678170  0.25044337    -0.06600
C75         C  0.14241767  0.35202024  0.29230236    -0.05900
C76         C  0.14735083  0.28787492  0.29166565    -0.06700
C77         C  0.21203606  0.35770740  0.29073578    -0.06600
C78         C  0.11714003  0.36950581  0.30370715    -0.32000
N79         N  0.10414768  0.38122251  0.27143142     0.14500
C80         C  0.11961093  0.37091376  0.23988162    -0.32000
H81         H  0.11417024  0.37649653  0.21022607     0.16500
C82         C  0.12599448  0.24496443  0.30296121    -0.30900
N83         N  0.11685091  0.22022314  0.27080239     0.13300
C84         C  0.13084890  0.24610079  0.23928919    -0.30900
C85         C  0.25449149  0.38072737  0.30192034    -0.31200
N86         N  0.27921435  0.39227309  0.26949134     0.13800
H87         H  0.26647272  0.38761165  0.33120834     0.16400
C88         C  0.25354549  0.37708869  0.23818636    -0.31200
H89         H  0.26518088  0.38051417  0.20871902     0.16400
H90         H  0.12788139  0.23481162  0.20980533     0.16400
H91         H  0.10912463  0.37391189  0.33295914     0.16500
H92         H  0.11708537  0.23254280  0.33208050     0.16400
O93         O  0.44418339  0.01866760  0.02475186    -0.88100
C94         C  0.43585385  0.43514299  0.43983394     0.88000
Mg95       Mg  0.49113546  0.08632050  0.02337735     1.58100
O96         O  0.48193596  0.42694459  0.02670871    -0.87800
O97         O  0.42440519  0.46327567  0.06305107    -0.75100
C98         C  0.17538290  0.09334044  0.48343457     0.93000
O99         O  0.46415735  0.03760638  0.43363732    -0.74900
O100        O  0.15622844  0.11415626  0.47533930    -0.82400
Mg101      Mg  0.40759425  0.49155727  0.47240856     1.58000
C102        C  0.09204407  0.41768842  0.02132398     0.92900
O103        O  0.34460396  0.44411970  0.00308416    -0.80700
H104        H  0.47719434  0.41514556  0.08353381    -0.06100
C105        C  0.06706062  0.99892595  0.44224174     0.87900
O106        O  0.03598823  0.07647185  0.06358285    -0.75200
O107        O  0.42773199  0.44438790  0.47207031    -0.88000
O108        O  0.05422379  0.39913233  0.00783996    -0.80800
C109        C  0.42048644  0.32458273  0.48195294     0.93100
C110        C  0.32513152  0.40568483  0.01623132     0.92900
Mg111      Mg  0.09238174  0.00876569  0.02764581     1.58000
O112        O  0.15576921  0.05528646  0.49737184    -0.80700
O113        O  0.03542448  0.46338640  0.06597157    -0.75000
O114        O  0.40091558  0.34367008  0.49465467    -0.80800
O115        O  0.38570100  0.04098014  0.47299477    -0.82500
O116        O  0.10108223  0.15736266  0.00458765    -0.80800
C117        C  0.99729740  0.43376612  0.05950509     0.87300
O118        O  0.07287927  0.05656707  0.02694270    -0.88000
O119        O  0.05655862  0.48258840  0.47475541    -0.88100
O120        O  0.07594348  0.03742672  0.43587247    -0.75100
Mg121      Mg  0.41533815  0.40678027  0.02477038     1.58000
O122        O  0.46053623  0.34449817  0.47490522    -0.82500
H123        H  0.43397093  0.02138293  0.08134419    -0.06200
O124        O  0.01854036  0.07443569  0.47198783    -0.87800
H125        H  0.02212180  0.08556269  0.41507528    -0.06100
H126        H  0.08311537  0.06636516  0.08375023    -0.06200
C127        C  0.50252363  0.06719069  0.43943487     0.87300
C128        C  0.43377879  0.50203458  0.05716323     0.87900
C129        C  0.06529952  0.06689258  0.05890798     0.87900
H130        H  0.06697859  0.47935048  0.41829925    -0.06200
O131        O  0.46558097  0.42624700  0.43480704    -0.75200
Mg132      Mg  0.08546771  0.09388610  0.47408177     1.58000
H133        H  0.41826182  0.43624629  0.41505386    -0.06200
C134        C  0.40554321  0.08134836  0.47944237     0.92900
O135        O  0.04145992  0.15800583  0.02215795    -0.82500
C136        C  0.08186302  0.17722238  0.01624577     0.93000
O137        O  0.34446424  0.38492915  0.02356031    -0.82500
Mg138      Mg  0.00960916  0.41560362  0.47515040     1.58200
O139        O  0.44424719  0.10156493  0.49119601    -0.80800
O140        O  0.11287673  0.45794425  0.02850372    -0.82500
O141        O  0.01799230  0.44245369  0.22341793    -0.88100
C142        C  0.43334959  0.43115455  0.30805162     0.88000
Mg143      Mg  0.08464260  0.48909873  0.22492606     1.58100
O144        O  0.42723164  0.48162151  0.22276843    -0.87800
O145        O  0.46424816  0.42517665  0.18445303    -0.75100
C146        C  0.09448404  0.17426599  0.26875150     0.93000
O147        O  0.03550165  0.46003629  0.31500942    -0.74900
O148        O  0.11485922  0.15430420  0.27516565    -0.82400
Mg149      Mg  0.49069372  0.40441022  0.27548004     1.58000
C150        C  0.41959727  0.09429240  0.23243595     0.92900
O151        O  0.44481587  0.34214434  0.24388171    -0.80700
H152        H  0.41654530  0.47993754  0.16597520    -0.06100
C153        C  0.99824514  0.06402317  0.30928557     0.87900
O154        O  0.07553463  0.03570371  0.18591177    -0.75200
O155        O  0.44388872  0.42478291  0.27569291    -0.88000
O156        O  0.39986288  0.05538308  0.24450608    -0.80800
C157        C  0.32490181  0.41665404  0.26693707     0.93100
C158        C  0.40693397  0.32316915  0.23037803     0.92900
Mg159      Mg  0.00939020  0.09284190  0.22499768     1.58000
O160        O  0.05592245  0.15522705  0.25676130    -0.80700
O161        O  0.46416799  0.03750887  0.18533114    -0.75000
O162        O  0.34458952  0.39793739  0.25369644    -0.80800
O163        O  0.04008972  0.38252057  0.27586046    -0.82500
O164        O  0.15614209  0.09770272  0.24570278    -0.80800
C165        C  0.43465143  0.99880376  0.19055745     0.87300
O166        O  0.05627674  0.07219256  0.22387702    -0.88000
O167        O  0.48200624  0.05454703  0.27684369    -0.88100
O168        O  0.03666878  0.07302297  0.31497475    -0.75100
Mg169      Mg  0.40764168  0.41433026  0.22297802     1.58000
O170        O  0.34396280  0.45691584  0.27415876    -0.82500
H171        H  0.02223337  0.43473027  0.16658041    -0.06200
O172        O  0.07278495  0.01548253  0.27720355    -0.87800
H173        H  0.08308507  0.01775388  0.33410987    -0.06100
H174        H  0.06619488  0.08411927  0.16716277    -0.06200
C175        C  0.06512803  0.49864216  0.30957572     0.87300
C176        C  0.50235945  0.43358919  0.19072036     0.87900
C177        C  0.06643969  0.06534607  0.19152637     0.87900
H178        H  0.47881892  0.06328693  0.33364949    -0.06200
O179        O  0.42423580  0.46072651  0.31391612    -0.75200
Mg180      Mg  0.09309214  0.08284093  0.27622782     1.58000
H181        H  0.43343010  0.41210369  0.33225260    -0.06200
C182        C  0.08025500  0.40319955  0.26915149     0.92900
O183        O  0.15534945  0.03790831  0.22570930    -0.82500
C184        C  0.17516205  0.07806430  0.23290480     0.93000
O185        O  0.38677346  0.34308525  0.22280567    -0.82500
Mg186      Mg  0.41493514  0.00733226  0.27523788     1.58200
O187        O  0.09941237  0.44168707  0.25623072    -0.80800
O188        O  0.45984837  0.11468885  0.22595149    -0.82500
C189        C  0.17786068  0.30738888  0.41786511    -0.20000
C190        C  0.17183125  0.33867007  0.43722953    -0.06600
C191        C  0.17888306  0.37501773  0.41487585     0.14300
C192        C  0.17515795  0.37101325  0.37452861    -0.20100
C193        C  0.17195594  0.33482325  0.35527435    -0.06600
C194        C  0.18152412  0.30726955  0.37745488     0.14300
C195        C  0.20091787  0.28162960  0.36089484    -0.23400
H196        H  0.18327472  0.28491987  0.43447569     0.15600
H197        H  0.17873914  0.39822504  0.35786204     0.15600
C198        C  0.19653203  0.41996025  0.43098611    -0.23400
H199        H  0.23190655  0.29154891  0.37546442     0.05800
H200        H  0.20852607  0.28731480  0.32968574     0.09000
H201        H  0.17935400  0.24667670  0.36635471     0.09000
H202        H  0.20517269  0.42248695  0.46187687     0.09000
H203        H  0.17344847  0.43159976  0.42646315     0.09000
H204        H  0.22673080  0.44217374  0.41536773     0.05800
C205        C  0.19552139  0.37074900  0.16753332    -0.20000
C206        C  0.16431717  0.33399205  0.18740867    -0.06600
C207        C  0.12775398  0.30480364  0.16569382     0.14300
C208        C  0.13057399  0.30554028  0.12519147    -0.20100
C209        C  0.16686360  0.33723366  0.10525113    -0.06600
C210        C  0.19601881  0.37383404  0.12709150     0.14300
C211        C  0.22518182  0.41793096  0.10999837    -0.23400
H212        H  0.21794110  0.39891101  0.18364310     0.15600
H213        H  0.10247724  0.28314046  0.10919440     0.15600
C214        C  0.08388217  0.27567793  0.18300211    -0.23400
H215        H  0.21811372  0.44174621  0.12399007     0.05800
H216        H  0.22078859  0.42008839  0.07867350     0.09000
H217        H  0.25921295  0.42780101  0.11568153     0.09000
H218        H  0.08205829  0.27976664  0.21450492     0.09000
H219        H  0.07355283  0.24143692  0.17655307     0.09000
H220        H  0.06040466  0.28337110  0.16978805     0.05800
C221        C  0.32345856  0.19470198  0.33279703    -0.20000
C222        C  0.32788253  0.16271489  0.31285743    -0.06600
C223        C  0.32007394  0.12580499  0.33467658     0.14300
C224        C  0.32228729  0.12863366  0.37510083    -0.20100
C225        C  0.32794414  0.16550684  0.39493547    -0.06600
C226        C  0.32130954  0.19538123  0.37328257     0.14300
C227        C  0.30781864  0.22562151  0.39074035    -0.23400
H228        H  0.31827084  0.21763525  0.31682706     0.15600
H229        H  0.31633595  0.10026535  0.39118139     0.15600
C230        C  0.30545028  0.08174139  0.31755147    -0.23400
H231        H  0.27693370  0.21898659  0.37777892     0.05800
H232        H  0.33222867  0.25957449  0.38414082     0.09000
H233        H  0.30220242  0.22174971  0.42229512     0.09000
H234        H  0.32906468  0.07124919  0.32410832     0.09000
H235        H  0.30022713  0.08004367  0.28602316     0.09000
H236        H  0.27416869  0.05815306  0.33080379     0.05800
C237        C  0.30467020  0.17487024  0.08332227    -0.20000
C238        C  0.33609758  0.17022058  0.06281034    -0.06600
C239        C  0.37266264  0.17716484  0.08417155     0.14300
C240        C  0.36982236  0.17407579  0.12463663    -0.20100
C241        C  0.33350447  0.16893955  0.14499105    -0.06600
C242        C  0.30413255  0.17650462  0.12380411     0.14300
C243        C  0.27457482  0.19058185  0.14169240    -0.23400
H244        H  0.28211682  0.18076702  0.06777289     0.15600
H245        H  0.39794561  0.17946782  0.14032157     0.15600
C246        C  0.41648685  0.19222830  0.06657826    -0.23400
H247        H  0.28165912  0.22189583  0.12878346     0.05800
H248        H  0.27841623  0.19596601  0.17321029     0.09000
H249        H  0.24066414  0.16648059  0.13537680     0.09000
H250        H  0.41812571  0.19829410  0.03514027     0.09000
H251        H  0.42693836  0.16834819  0.07247226     0.09000
H252        H  0.43996671  0.22333355  0.08004879     0.05800
C253        C  0.33348671  0.16692765  0.51852019     0.30300
C254        C  0.33196392  0.16692961  0.93902951     0.30300
C255        C  0.35059207  0.14008444  0.49830126    -0.05900
C256        C  0.28890747  0.14775041  0.49988358    -0.06700
C257        C  0.35860509  0.21088996  0.49867588    -0.06600
C258        C  0.35110552  0.14083790  0.95785238    -0.05900
C259        C  0.28824541  0.14865012  0.95963031    -0.06700
C260        C  0.35931746  0.21130588  0.95841122    -0.06600
C261        C  0.37226529  0.11912073  0.94603739    -0.32000
N262        N  0.38228414  0.10405424  0.97790806     0.14500
C263        C  0.36858680  0.11588364  0.50973637    -0.32000
H264        H  0.37237856  0.10802949  0.53909241     0.16500
C265        C  0.24577172  0.12890925  0.94850175    -0.30900
N266        N  0.22107197  0.11481180  0.48088529     0.13300
C267        C  0.24678815  0.12497841  0.51210469    -0.30900
C268        C  0.38495830  0.25399071  0.94732642    -0.31200
N269        N  0.39724123  0.27865273  0.47972765     0.13800
H270        H  0.39310131  0.26639360  0.91813900     0.16400
C271        C  0.38150333  0.25275196  0.51111784    -0.31200
H272        H  0.38623206  0.26372976  0.54083480     0.16400
H273        H  0.23519368  0.11571535  0.54145655     0.16400
H274        H  0.38118466  0.11571826  0.91683328     0.16500
H275        H  0.23376095  0.12400293  0.91924042     0.16400
C276        C  0.33232825  0.16522105  0.68912695     0.30300
C277        C  0.33174342  0.16491912  0.76860589     0.30300
C278        C  0.35841198  0.14647665  0.70865956    -0.05900
C279        C  0.35036609  0.20945444  0.70878599    -0.06700
C280        C  0.28805972  0.13795422  0.70880911    -0.06600
C281        C  0.35875309  0.14755826  0.74912759    -0.05900
C282        C  0.35081946  0.20939271  0.74905381    -0.06700
C283        C  0.28821528  0.13937588  0.74901055    -0.06600
C284        C  0.38340885  0.13042161  0.76139268    -0.32000
N285        N  0.39627049  0.11693771  0.73007637     0.14500
C286        C  0.38111302  0.12600862  0.69773137    -0.32000
H287        H  0.38520324  0.11693629  0.66881099     0.16500
C288        C  0.37380047  0.25184830  0.76039615    -0.30900
N289        N  0.38464678  0.27723492  0.72859973     0.13300
C290        C  0.37074985  0.25197710  0.69670540    -0.30900
C291        C  0.24648407  0.11729200  0.76169567    -0.31200
N292        N  0.22085051  0.10129832  0.73049858     0.13800
H293        H  0.23542400  0.11332410  0.79142639     0.16400
C294        C  0.24556836  0.11257839  0.69801604    -0.31200
H295        H  0.23335145  0.10413459  0.66892309     0.16400
H296        H  0.37638552  0.26361233  0.66717558     0.16400
H297        H  0.39091740  0.12713160  0.79098082     0.16500
H298        H  0.38299764  0.26389664  0.78953305     0.16400
C299        C  0.16806709  0.33540851  0.56102879     0.30300
C300        C  0.16831463  0.33661216  0.98152192     0.30300
C301        C  0.14826573  0.36020093  0.54205364    -0.05900
C302        C  0.21243665  0.35420457  0.54108980    -0.06700
C303        C  0.14344898  0.29056183  0.54097575    -0.06600
C304        C  0.14706299  0.35941322  0.00183709    -0.05900
C305        C  0.21205924  0.35584917  0.00089849    -0.06700
C306        C  0.14345741  0.29162744  0.00046360    -0.06600
C307        C  0.12350178  0.37817062  0.99096615    -0.32000
N308        N  0.11351997  0.39332155  0.52296069     0.14500
C309        C  0.12807397  0.38241683  0.55459272    -0.32000
H310        H  0.12349854  0.38925582  0.58420941     0.16500
C311        C  0.25366852  0.37497131  0.98797870    -0.30900
N312        N  0.27946288  0.38404737  0.51897801     0.13300
C313        C  0.25493413  0.37072636  0.55158714    -0.32100
C314        C  0.11958779  0.24973675  0.98778821    -0.31200
N315        N  0.10612961  0.22322120  0.51890487     0.13800
H316        H  0.11223327  0.23897019  0.95812322     0.16400
C317        C  0.12073899  0.24730243  0.55149586    -0.31200
H318        H  0.11581691  0.23397703  0.58035269     0.16400
H319        H  0.26723395  0.37362429  0.58054524     0.16400
H320        H  0.11412668  0.38080052  0.96190197     0.16500
H321        H  0.26451802  0.38165090  0.95817956     0.16400
C322        C  0.16681523  0.33252901  0.73166898     0.30300
C323        C  0.16816299  0.33280443  0.81117319     0.30300
C324        C  0.14276012  0.35225372  0.75200674    -0.05900
C325        C  0.14846008  0.28817829  0.75125344    -0.06700
C326        C  0.21142572  0.35678171  0.75044335    -0.06600
C327        C  0.14241776  0.35202041  0.79230236    -0.05900
C328        C  0.14735072  0.28787498  0.79166566    -0.06700
C329        C  0.21203608  0.35770744  0.79073575    -0.06600
C330        C  0.11714016  0.36950601  0.80370715    -0.32000
N331        N  0.10414781  0.38122274  0.77143145     0.14500
C332        C  0.11961096  0.37091387  0.73988162    -0.32000
H333        H  0.11417020  0.37649655  0.71022610     0.16500
C334        C  0.12599437  0.24496448  0.80296122    -0.30900
N335        N  0.11685090  0.22022318  0.77080241     0.13300
C336        C  0.13084880  0.24610081  0.73928919    -0.30900
C337        C  0.25449152  0.38072748  0.80192034    -0.31200
N338        N  0.27921442  0.39227312  0.76949134     0.13800
H339        H  0.26647273  0.38761182  0.83120834     0.16400
C340        C  0.25354555  0.37708874  0.73818638    -0.31200
H341        H  0.26518099  0.38051433  0.70871900     0.16400
H342        H  0.12788131  0.23481162  0.70980534     0.16400
H343        H  0.10912473  0.37391203  0.83295918     0.16500
H344        H  0.11708523  0.23254284  0.83208050     0.16400
O345        O  0.44418342  0.01866765  0.52475183    -0.88100
C346        C  0.43585375  0.43514300  0.93983393     0.88000
Mg347      Mg  0.49113540  0.08632050  0.52337738     1.58100
O348        O  0.48193603  0.42694449  0.52670873    -0.87800
O349        O  0.42440524  0.46327560  0.56305098    -0.75100
C350        C  0.17538291  0.09334043  0.98343461     0.93000
O351        O  0.46415722  0.03760644  0.93363739    -0.74900
O352        O  0.15622849  0.11415629  0.97533932    -0.82400
Mg353      Mg  0.40759416  0.49155729  0.97240858     1.58000
C354        C  0.09204415  0.41768846  0.52132413     0.92900
O355        O  0.34460406  0.44411970  0.50308429    -0.80700
H356        H  0.47719446  0.41514545  0.58353385    -0.06100
C357        C  0.06706075  0.99892603  0.94224168     0.87900
O358        O  0.03598810  0.07647176  0.56358290    -0.75200
O359        O  0.42773174  0.44438783  0.97207028    -0.88000
O360        O  0.05422391  0.39913237  0.50784003    -0.80800
C361        C  0.42048640  0.32458281  0.98195293     0.93100
C362        C  0.32513158  0.40568481  0.51623137     0.92900
Mg363      Mg  0.09238178  0.00876571  0.52764586     1.58000
O364        O  0.15576918  0.05528648  0.99737194    -0.80700
O365        O  0.03542452  0.46338653  0.56597167    -0.75000
O366        O  0.40091554  0.34367015  0.99465472    -0.80800
O367        O  0.38570115  0.04098025  0.97299490    -0.82500
O368        O  0.10108219  0.15736268  0.50458751    -0.80800
C369        C  0.99729748  0.43376618  0.55950519     0.87300
O370        O  0.07287924  0.05656711  0.52694271    -0.88000
O371        O  0.05655869  0.48258840  0.97475535    -0.88100
O372        O  0.07594359  0.03742681  0.93587247    -0.75100
Mg373      Mg  0.41533820  0.40678018  0.52477039     1.58000
O374        O  0.46053619  0.34449828  0.97490525    -0.82500
H375        H  0.43397112  0.02138299  0.58134421    -0.06200
O376        O  0.01854038  0.07443568  0.97198786    -0.87800
H377        H  0.02212178  0.08556260  0.91507532    -0.06100
H378        H  0.08311538  0.06636526  0.58375022    -0.06200
C379        C  0.50252356  0.06719066  0.93943488     0.87300
C380        C  0.43377886  0.50203453  0.55716320     0.87900
C381        C  0.06529946  0.06689259  0.55890801     0.87900
H382        H  0.06697876  0.47935056  0.91829920    -0.06200
O383        O  0.46558096  0.42624710  0.93480714    -0.75200
Mg384      Mg  0.08546773  0.09388610  0.97408183     1.58000
H385        H  0.41826180  0.43624628  0.91505382    -0.06200
C386        C  0.40554333  0.08134848  0.97944245     0.92900
O387        O  0.04145995  0.15800587  0.52215806    -0.82500
C388        C  0.08186304  0.17722241  0.51624576     0.93000
O389        O  0.34446427  0.38492911  0.52356038    -0.82500
Mg390      Mg  0.00960905  0.41560364  0.97515038     1.58200
O391        O  0.44424730  0.10156509  0.99119609    -0.80800
O392        O  0.11287678  0.45794430  0.52850389    -0.82500
O393        O  0.01799236  0.44245377  0.72341791    -0.88100
C394        C  0.43334966  0.43115465  0.80805163     0.88000
Mg395      Mg  0.08464263  0.48909882  0.72492608     1.58100
O396        O  0.42723170  0.48162156  0.72276833    -0.87800
O397        O  0.46424814  0.42517660  0.68445297    -0.75100
C398        C  0.09448397  0.17426601  0.76875152     0.93000
O399        O  0.03550174  0.46003645  0.81500955    -0.74900
O400        O  0.11485910  0.15430416  0.77516561    -0.82400
Mg401      Mg  0.49069367  0.40441037  0.77548008     1.58000
C402        C  0.41959734  0.09429252  0.73243601     0.92900
O403        O  0.44481602  0.34214447  0.74388163    -0.80700
H404        H  0.41654531  0.47993747  0.66597511    -0.06100
C405        C  0.99824500  0.06402312  0.80928551     0.87900
O406        O  0.07553468  0.03570372  0.68591183    -0.75200
O407        O  0.44388874  0.42478308  0.77569286    -0.88000
O408        O  0.39986297  0.05538314  0.74450596    -0.80800
C409        C  0.32490188  0.41665404  0.76693707     0.93100
C410        C  0.40693408  0.32316925  0.73037805     0.92900
Mg411      Mg  0.00939027  0.09284204  0.72499760     1.58000
O412        O  0.05592236  0.15522712  0.75676137    -0.80700
O413        O  0.46416809  0.03750891  0.68533102    -0.75000
O414        O  0.34458958  0.39793735  0.75369652    -0.80800
O415        O  0.04008979  0.38252073  0.77586055    -0.82500
O416        O  0.15614206  0.09770266  0.74570297    -0.80800
C417        C  0.43465151  0.99880379  0.69055731     0.87300
O418        O  0.05627676  0.07219258  0.72387702    -0.88000
O419        O  0.48200625  0.05454719  0.77684363    -0.88100
O420        O  0.03666861  0.07302286  0.81497478    -0.75100
Mg421      Mg  0.40764170  0.41433029  0.72297798     1.58000
O422        O  0.34396287  0.45691586  0.77415863    -0.82500
H423        H  0.02223345  0.43473047  0.66658032    -0.06200
O424        O  0.07278498  0.01548261  0.77720358    -0.87800
H425        H  0.08308524  0.01775407  0.83410989    -0.06100
H426        H  0.06619521  0.08411940  0.66716279    -0.06200
C427        C  0.06512814  0.49864230  0.80957576     0.87300
C428        C  0.50235945  0.43358924  0.69072034     0.87900
C429        C  0.06643982  0.06534612  0.69152641     0.87900
H430        H  0.47881863  0.06328662  0.83364948    -0.06200
O431        O  0.42423585  0.46072657  0.81391626    -0.75200
Mg432      Mg  0.09309206  0.08284092  0.77622786     1.58000
H433        H  0.43343037  0.41210379  0.83225253    -0.06200
C434        C  0.08025508  0.40319973  0.76915153     0.92900
O435        O  0.15534950  0.03790836  0.72570923    -0.82500
C436        C  0.17516207  0.07806433  0.73290487     0.93000
O437        O  0.38677354  0.34308533  0.72280578    -0.82500
Mg438      Mg  0.41493518  0.00733232  0.77523776     1.58200
O439        O  0.09941243  0.44168727  0.75623078    -0.80800
O440        O  0.45984846  0.11468904  0.72595158    -0.82500
C441        C  0.17786048  0.30738880  0.91786508    -0.20000
C442        C  0.17183112  0.33867003  0.93722951    -0.06600
C443        C  0.17888307  0.37501777  0.91487587     0.14300
C444        C  0.17515807  0.37101336  0.87452861    -0.20100
C445        C  0.17195603  0.33482335  0.85527433    -0.06600
C446        C  0.18152410  0.30726959  0.87745487     0.14300
C447        C  0.20091775  0.28162952  0.86089489    -0.23400
H448        H  0.18327443  0.28491971  0.93447564     0.15600
H449        H  0.17873931  0.39822515  0.85786205     0.15600
C450        C  0.19653197  0.41996027  0.93098620    -0.23400
H451        H  0.23190639  0.29154874  0.87546454     0.05800
H452        H  0.20852593  0.28731466  0.82968579     0.09000
H453        H  0.17935373  0.24667665  0.86635477     0.09000
H454        H  0.20517249  0.42248698  0.96187700     0.09000
H455        H  0.17344840  0.43159978  0.92646318     0.09000
H456        H  0.22673077  0.44217381  0.91536791     0.05800
C457        C  0.19552142  0.37074894  0.66753334    -0.20000
C458        C  0.16431714  0.33399203  0.68740869    -0.06600
C459        C  0.12775391  0.30480364  0.66569386     0.14300
C460        C  0.13057395  0.30554028  0.62519151    -0.20100
C461        C  0.16686365  0.33723359  0.60525118    -0.06600
C462        C  0.19601882  0.37383400  0.62709151     0.14300
C463        C  0.22518171  0.41793094  0.60999832    -0.23400
H464        H  0.21794112  0.39891092  0.68364310     0.15600
H465        H  0.10247723  0.28314053  0.60919442     0.15600
C466        C  0.08388204  0.27567795  0.68300217    -0.23400
H467        H  0.21811340  0.44174612  0.62398987     0.05800
H468        H  0.22078856  0.42008827  0.57867341     0.09000
H469        H  0.25921285  0.42780117  0.61568159     0.09000
H470        H  0.08205814  0.27976666  0.71450498     0.09000
H471        H  0.07355264  0.24143691  0.67655317     0.09000
H472        H  0.06040450  0.28337108  0.66978810     0.05800
C473        C  0.32345870  0.19470214  0.83279702    -0.20000
C474        C  0.32788252  0.16271495  0.81285743    -0.06600
C475        C  0.32007391  0.12580504  0.83467659     0.14300
C476        C  0.32228735  0.12863374  0.87510082    -0.20100
C477        C  0.32794408  0.16550688  0.89493548    -0.06600
C478        C  0.32130957  0.19538134  0.87328256     0.14300
C479        C  0.30781856  0.22562159  0.89074026    -0.23400
H480        H  0.31827107  0.21763545  0.81682705     0.15600
H481        H  0.31633611  0.10026544  0.89118137     0.15600
C482        C  0.30545012  0.08174137  0.81755151    -0.23400
H483        H  0.27693373  0.21898672  0.87777861     0.05800
H484        H  0.33222862  0.25957462  0.88414092     0.09000
H485        H  0.30220211  0.22174964  0.92229500     0.09000
H486        H  0.32906440  0.07124902  0.82410840     0.09000
H487        H  0.30022694  0.08004363  0.78602321     0.09000
H488        H  0.27416853  0.05815312  0.83080386     0.05800
C489        C  0.30467019  0.17487013  0.58332228    -0.20000
C490        C  0.33609756  0.17022043  0.56281037    -0.06600
C491        C  0.37266262  0.17716471  0.58417163     0.14300
C492        C  0.36982234  0.17407575  0.62463671    -0.20100
C493        C  0.33350446  0.16893956  0.64499109    -0.06600
C494        C  0.30413251  0.17650459  0.62380412     0.14300
C495        C  0.27457481  0.19058195  0.64169231    -0.23400
H496        H  0.28211687  0.18076693  0.56777286     0.15600
H497        H  0.39794556  0.17946775  0.64032168     0.15600
C498        C  0.41648684  0.19222813  0.56657837    -0.23400
H499        H  0.28165930  0.22189601  0.62878340     0.05800
H500        H  0.27841607  0.19596600  0.67321023     0.09000
H501        H  0.24066410  0.16648085  0.63537660     0.09000
H502        H  0.41812566  0.19829386  0.53514036     0.09000
H503        H  0.42693836  0.16834805  0.57247240     0.09000
H504        H  0.43996671  0.22333339  0.58004888     0.05800
C505        C  0.33348668  0.66692776  0.01852020     0.30300
C506        C  0.33196395  0.66692957  0.43902948     0.30300
C507        C  0.35059210  0.64008458  0.99830126    -0.05900
C508        C  0.28890744  0.64775048  0.99988364    -0.06700
C509        C  0.35860495  0.71089006  0.99867588    -0.06600
C510        C  0.35110540  0.64083773  0.45785237    -0.05900
C511        C  0.28824541  0.64865016  0.45963023    -0.06700
C512        C  0.35931756  0.71130584  0.45841121    -0.06600
C513        C  0.37226522  0.61912060  0.44603736    -0.32000
N514        N  0.38228409  0.60405413  0.47790804     0.14500
C515        C  0.36858681  0.61588377  0.00973638    -0.32000
H516        H  0.37237859  0.60802961  0.03909241     0.16500
C517        C  0.24577171  0.62890928  0.44850167    -0.30900
N518        N  0.22107196  0.61481180  0.98088537     0.13300
C519        C  0.24678812  0.62497850  0.01210477    -0.30900
C520        C  0.38495839  0.75399069  0.44732646    -0.31200
N521        N  0.39724113  0.77865281  0.97972762     0.13800
H522        H  0.39310139  0.76639370  0.41813904     0.16400
C523        C  0.38150323  0.75275206  0.01111781    -0.31200
H524        H  0.38623201  0.76372988  0.04083482     0.16400
H525        H  0.23519365  0.61571546  0.04145663     0.16400
H526        H  0.38118464  0.61571815  0.41683329     0.16500
H527        H  0.23376089  0.62400293  0.41924031     0.16400
C528        C  0.33232820  0.66522095  0.18912691     0.30300
C529        C  0.33174338  0.66491897  0.26860586     0.30300
C530        C  0.35841191  0.64647652  0.20865947    -0.05900
C531        C  0.35036607  0.70945431  0.20878601    -0.06700
C532        C  0.28805966  0.63795411  0.20880908    -0.06600
C533        C  0.35875301  0.64755810  0.24912750    -0.05900
C534        C  0.35081947  0.70939257  0.24905382    -0.06700
C535        C  0.28821522  0.63937574  0.24901051    -0.06600
C536        C  0.38340891  0.63042161  0.26139256    -0.32000
N537        N  0.39627055  0.61693771  0.23007625     0.14500
C538        C  0.38111312  0.62600865  0.19773124    -0.32000
H539        H  0.38520348  0.61693649  0.16881085     0.16500
C540        C  0.37380048  0.75184815  0.26039619    -0.30900
N541        N  0.38464671  0.77723476  0.22859976     0.13300
C542        C  0.37074974  0.75197696  0.19670544    -0.30900
C543        C  0.24648401  0.61729179  0.26169562    -0.31200
N544        N  0.22085044  0.60129812  0.23049853     0.13800
H545        H  0.23542394  0.61332390  0.29142634     0.16400
C546        C  0.24556832  0.61257822  0.19801602    -0.31200
H547        H  0.23335142  0.60413440  0.16892304     0.16400
H548        H  0.37638531  0.76361218  0.16717564     0.16400
H549        H  0.39091757  0.62713174  0.29098070     0.16500
H550        H  0.38299761  0.76389649  0.28953306     0.16400
C551        C  0.16806703  0.83540854  0.06102876     0.30300
C552        C  0.16831468  0.83661219  0.48152195     0.30300
C553        C  0.14826561  0.86020086  0.04205354    -0.05900
C554        C  0.21243659  0.85420465  0.04108979    -0.06700
C555        C  0.14344897  0.79056184  0.04097571    -0.06600
C556        C  0.14706316  0.85941335  0.50183717    -0.05900
C557        C  0.21205929  0.85584915  0.50089851    -0.06700
C558        C  0.14345735  0.79162745  0.50046363    -0.06600
C559        C  0.12350198  0.87817080  0.49096627    -0.32000
N560        N  0.11351998  0.89332156  0.02296053     0.14500
C561        C  0.12807399  0.88241688  0.05459258    -0.32000
H562        H  0.12349867  0.88925597  0.08420926     0.16500
C563        C  0.25366855  0.87497131  0.48797870    -0.30900
N564        N  0.27946281  0.88404739  0.01897801     0.13300
C565        C  0.25493404  0.87072630  0.05158715    -0.32100
C566        C  0.11958772  0.74973675  0.48778823    -0.31200
N567        N  0.10612951  0.72322121  0.01890484     0.13800
H568        H  0.11223314  0.73897017  0.45812330     0.16400
C569        C  0.12073890  0.74730245  0.05149584    -0.31200
H570        H  0.11581677  0.73397704  0.08035262     0.16400
H571        H  0.26723383  0.87362403  0.08054522     0.16400
H572        H  0.11412682  0.88080067  0.46190212     0.16500
H573        H  0.26451802  0.88165094  0.45817956     0.16400
C574        C  0.16681523  0.83252897  0.23166898     0.30300
C575        C  0.16816298  0.83280434  0.31117320     0.30300
C576        C  0.14276003  0.85225354  0.25200674    -0.05900
C577        C  0.14846017  0.78817825  0.25125344    -0.06700
C578        C  0.21142569  0.85678172  0.25044337    -0.06600
C579        C  0.14241771  0.85202025  0.29230235    -0.05900
C580        C  0.14735078  0.78787490  0.29166567    -0.06700
C581        C  0.21203608  0.85770738  0.29073577    -0.06600
C582        C  0.11714015  0.86950589  0.30370717    -0.32000
N583        N  0.10414777  0.88122257  0.27143144     0.14500
C584        C  0.11961088  0.87091368  0.23988162    -0.32000
H585        H  0.11417013  0.87649643  0.21022607     0.16500
C586        C  0.12599440  0.74496441  0.30296121    -0.30900
N587        N  0.11685085  0.72022314  0.27080238     0.13300
C588        C  0.13084886  0.74610079  0.23928919    -0.30900
C589        C  0.25449152  0.88072739  0.30192033    -0.31200
N590        N  0.27921438  0.89227306  0.26949133     0.13800
H591        H  0.26647279  0.88761175  0.33120832     0.16400
C592        C  0.25354551  0.87708872  0.23818636    -0.31200
H593        H  0.26518091  0.88051423  0.20871902     0.16400
H594        H  0.12788141  0.73481165  0.20980532     0.16400
H595        H  0.10912481  0.87391198  0.33295915     0.16500
H596        H  0.11708530  0.73254274  0.33208051     0.16400
O597        O  0.44418331  0.51866761  0.02475186    -0.88100
C598        C  0.43585383  0.93514292  0.43983400     0.88000
Mg599      Mg  0.49113543  0.58632051  0.02337732     1.58100
O600        O  0.48193598  0.92694460  0.02670869    -0.87800
O601        O  0.42440519  0.96327566  0.06305107    -0.75100
C602        C  0.17538298  0.59334045  0.48343457     0.93000
O603        O  0.46415727  0.53760640  0.43363728    -0.74900
O604        O  0.15622859  0.61415634  0.47533929    -0.82400
Mg605      Mg  0.40759424  0.99155728  0.47240856     1.58000
C606        C  0.09204411  0.91768842  0.02132399     0.92900
O607        O  0.34460395  0.94411972  0.00308415    -0.80700
H608        H  0.47719426  0.91514558  0.08353379    -0.06100
C609        C  0.06706070  0.49892592  0.44224174     0.87900
O610        O  0.03598821  0.57647184  0.06358279    -0.75200
O611        O  0.42773191  0.94438786  0.47207033    -0.88000
O612        O  0.05422384  0.89913227  0.00783999    -0.80800
C613        C  0.42048644  0.82458275  0.48195293     0.93100
C614        C  0.32513151  0.90568485  0.01623131     0.92900
Mg615      Mg  0.09238183  0.50876568  0.02764582     1.58000
O616        O  0.15576924  0.55528648  0.49737186    -0.80700
O617        O  0.03542446  0.96338644  0.06597157    -0.75000
O618        O  0.40091554  0.84367007  0.49465466    -0.80800
O619        O  0.38570104  0.54098012  0.47299478    -0.82500
O620        O  0.10108227  0.65736271  0.00458762    -0.80800
C621        C  0.99729741  0.93376611  0.05950508     0.87300
O622        O  0.07287940  0.55656714  0.02694274    -0.88000
O623        O  0.05655859  0.98258843  0.47475542    -0.88100
O624        O  0.07594368  0.53742673  0.43587248    -0.75100
Mg625      Mg  0.41533818  0.90678027  0.02477038     1.58000
O626        O  0.46053623  0.84449824  0.47490523    -0.82500
H627        H  0.43397090  0.52138291  0.08134421    -0.06200
O628        O  0.01854032  0.57443555  0.47198784    -0.87800
H629        H  0.02212174  0.58556279  0.41507534    -0.06100
H630        H  0.08311531  0.56636516  0.08375030    -0.06200
C631        C  0.50252357  0.56719067  0.43943488     0.87300
C632        C  0.43377883  0.00203458  0.05716323     0.87900
C633        C  0.06529953  0.56689260  0.05890800     0.87900
H634        H  0.06697855  0.97935052  0.41829926    -0.06200
O635        O  0.46558099  0.92624696  0.43480719    -0.75200
Mg636      Mg  0.08546779  0.59388609  0.47408176     1.58000
H637        H  0.41826177  0.93624607  0.41505390    -0.06200
C638        C  0.40554324  0.58134834  0.47944239     0.92900
O639        O  0.04145993  0.65800582  0.02215798    -0.82500
C640        C  0.08186303  0.67722241  0.01624576     0.93000
O641        O  0.34446425  0.88492920  0.02356030    -0.82500
Mg642      Mg  0.00960914  0.91560365  0.47515040     1.58200
O643        O  0.44424723  0.60156491  0.49119602    -0.80800
O644        O  0.11287670  0.95794425  0.02850372    -0.82500
O645        O  0.01799233  0.94245361  0.22341793    -0.88100
C646        C  0.43334959  0.93115455  0.30805161     0.88000
Mg647      Mg  0.08464263  0.98909872  0.22492605     1.58100
O648        O  0.42723161  0.98162150  0.22276842    -0.87800
O649        O  0.46424811  0.92517644  0.18445301    -0.75100
C650        C  0.09448404  0.67426600  0.26875148     0.93000
O651        O  0.03550175  0.96003628  0.31500941    -0.74900
O652        O  0.11485924  0.65430424  0.27516568    -0.82400
Mg653      Mg  0.49069367  0.90441023  0.27548004     1.58000
C654        C  0.41959735  0.59429245  0.23243595     0.92900
O655        O  0.44481582  0.84214436  0.24388173    -0.80700
H656        H  0.41654524  0.97993748  0.16597519    -0.06100
C657        C  0.99824511  0.56402306  0.30928559     0.87900
O658        O  0.07553477  0.53570378  0.18591180    -0.75200
O659        O  0.44388868  0.92478289  0.27569288    -0.88000
O660        O  0.39986298  0.55538313  0.24450607    -0.80800
C661        C  0.32490185  0.91665406  0.26693707     0.93100
C662        C  0.40693393  0.82316910  0.23037805     0.92900
Mg663      Mg  0.00939022  0.59284192  0.22499767     1.58000
O664        O  0.05592246  0.65522703  0.25676125    -0.80700
O665        O  0.46416815  0.53750885  0.18533115    -0.75000
O666        O  0.34458959  0.89793744  0.25369647    -0.80800
O667        O  0.04008978  0.88252058  0.27586048    -0.82500
O668        O  0.15614206  0.59770271  0.24570275    -0.80800
C669        C  0.43465151  0.49880378  0.19055746     0.87300
O670        O  0.05627675  0.57219255  0.22387700    -0.88000
O671        O  0.48200626  0.55454706  0.27684369    -0.88100
O672        O  0.03666878  0.57302295  0.31497475    -0.75100
Mg673      Mg  0.40764165  0.91433022  0.22297800     1.58000
O674        O  0.34396280  0.95691586  0.27415876    -0.82500
H675        H  0.02223344  0.93473035  0.16658041    -0.06200
O676        O  0.07278490  0.51548253  0.27720355    -0.87800
H677        H  0.08308514  0.51775378  0.33410986    -0.06100
H678        H  0.06619513  0.58411937  0.16716277    -0.06200
C679        C  0.06512805  0.99864219  0.30957572     0.87300
C680        C  0.50235945  0.93358914  0.19072037     0.87900
C681        C  0.06643981  0.56534612  0.19152637     0.87900
H682        H  0.47881895  0.56328690  0.33364949    -0.06200
O683        O  0.42423593  0.96072659  0.31391615    -0.75200
Mg684      Mg  0.09309213  0.58284095  0.27622781     1.58000
H685        H  0.43343007  0.91210364  0.33225255    -0.06200
C686        C  0.08025508  0.90319958  0.26915152     0.92900
O687        O  0.15534936  0.53790825  0.22570933    -0.82500
C688        C  0.17516200  0.57806424  0.23290482     0.93000
O689        O  0.38677336  0.84308514  0.22280568    -0.82500
Mg690      Mg  0.41493514  0.50733226  0.27523788     1.58200
O691        O  0.09941245  0.94168710  0.25623073    -0.80800
O692        O  0.45984847  0.61468890  0.22595148    -0.82500
C693        C  0.17786062  0.80738886  0.41786511    -0.20000
C694        C  0.17183117  0.83867005  0.43722953    -0.06600
C695        C  0.17888299  0.87501771  0.41487585     0.14300
C696        C  0.17515802  0.87101329  0.37452859    -0.20100
C697        C  0.17195595  0.83482326  0.35527435    -0.06600
C698        C  0.18152406  0.80726953  0.37745488     0.14300
C699        C  0.20091782  0.78162960  0.36089484    -0.23400
H700        H  0.18327467  0.78491985  0.43447570     0.15600
H701        H  0.17873934  0.89822511  0.35786202     0.15600
C702        C  0.19653197  0.91996021  0.43098611    -0.23400
H703        H  0.23190651  0.79154894  0.37546443     0.05800
H704        H  0.20852605  0.78731482  0.32968575     0.09000
H705        H  0.17935391  0.74667670  0.36635467     0.09000
H706        H  0.20517269  0.92248693  0.46187687     0.09000
H707        H  0.17344839  0.93159972  0.42646321     0.09000
H708        H  0.22673071  0.94217367  0.41536769     0.05800
C709        C  0.19552143  0.87074898  0.16753331    -0.20000
C710        C  0.16431716  0.83399207  0.18740867    -0.06600
C711        C  0.12775394  0.80480369  0.16569381     0.14300
C712        C  0.13057395  0.80554033  0.12519147    -0.20100
C713        C  0.16686358  0.83723369  0.10525114    -0.06600
C714        C  0.19601880  0.87383406  0.12709150     0.14300
C715        C  0.22518181  0.91793098  0.10999836    -0.23400
H716        H  0.21794121  0.89891097  0.18364308     0.15600
H717        H  0.10247720  0.78314050  0.10919440     0.15600
C718        C  0.08388213  0.77567797  0.18300210    -0.23400
H719        H  0.21811370  0.94174624  0.12399004     0.05800
H720        H  0.22078860  0.92008841  0.07867348     0.09000
H721        H  0.25921292  0.92780104  0.11568157     0.09000
H722        H  0.08205824  0.77976667  0.21450491     0.09000
H723        H  0.07355281  0.74143696  0.17655307     0.09000
H724        H  0.06040460  0.78337111  0.16978805     0.05800
C725        C  0.32345870  0.69470205  0.33279703    -0.20000
C726        C  0.32788253  0.66271487  0.31285742    -0.06600
C727        C  0.32007394  0.62580499  0.33467658     0.14300
C728        C  0.32228742  0.62863371  0.37510082    -0.20100
C729        C  0.32794417  0.66550685  0.39493547    -0.06600
C730        C  0.32130964  0.69538127  0.37328257     0.14300
C731        C  0.30781863  0.72562149  0.39074033    -0.23400
H732        H  0.31827100  0.71763531  0.31682706     0.15600
H733        H  0.31633618  0.60026542  0.39118137     0.15600
C734        C  0.30545023  0.58174139  0.31755148    -0.23400
H735        H  0.27693369  0.71898647  0.37777885     0.05800
H736        H  0.33222861  0.75957451  0.38414087     0.09000
H737        H  0.30220234  0.72174967  0.42229510     0.09000
H738        H  0.32906461  0.57124917  0.32410839     0.09000
H739        H  0.30022711  0.58004367  0.28602317     0.09000
H740        H  0.27416861  0.55815309  0.33080376     0.05800
C741        C  0.30467010  0.67487011  0.08332229    -0.20000
C742        C  0.33609755  0.67022056  0.06281034    -0.06600
C743        C  0.37266263  0.67716488  0.08417155     0.14300
C744        C  0.36982235  0.67407582  0.12463663    -0.20100
C745        C  0.33350446  0.66893954  0.14499104    -0.06600
C746        C  0.30413251  0.67650458  0.12380412     0.14300
C747        C  0.27457480  0.69058186  0.14169239    -0.23400
H748        H  0.28211670  0.68076685  0.06777293     0.15600
H749        H  0.39794557  0.67946784  0.14032156     0.15600
C750        C  0.41648682  0.69222834  0.06657826    -0.23400
H751        H  0.28165909  0.72189583  0.12878343     0.05800
H752        H  0.27841621  0.69596600  0.17321029     0.09000
H753        H  0.24066411  0.66648060  0.13537680     0.09000
H754        H  0.41812566  0.69829413  0.03514026     0.09000
H755        H  0.42693834  0.66834824  0.07247226     0.09000
H756        H  0.43996667  0.72333359  0.08004878     0.05800
C757        C  0.33348672  0.66692765  0.51852018     0.30300
C758        C  0.33196385  0.66692960  0.93902951     0.30300
C759        C  0.35059204  0.64008439  0.49830125    -0.05900
C760        C  0.28890749  0.64775043  0.49988358    -0.06700
C761        C  0.35860506  0.71088997  0.49867587    -0.06600
C762        C  0.35110546  0.64083791  0.95785238    -0.05900
C763        C  0.28824536  0.64865014  0.95963031    -0.06700
C764        C  0.35931741  0.71130589  0.95841121    -0.06600
C765        C  0.37226523  0.61912075  0.94603739    -0.32000
N766        N  0.38228409  0.60405427  0.97790806     0.14500
C767        C  0.36858681  0.61588362  0.50973637    -0.32000
H768        H  0.37237861  0.60802951  0.53909240     0.16500
C769        C  0.24577167  0.62890928  0.94850175    -0.30900
N770        N  0.22107202  0.61481175  0.48088530     0.13300
C771        C  0.24678820  0.62497843  0.51210470    -0.30900
C772        C  0.38495824  0.75399072  0.94732642    -0.31200
N773        N  0.39724127  0.77865275  0.47972764     0.13800
H774        H  0.39310128  0.76639362  0.91813901     0.16400
C775        C  0.38150332  0.75275198  0.51111784    -0.31200
H776        H  0.38623201  0.76372980  0.54083479     0.16400
H777        H  0.23519377  0.61571545  0.54145659     0.16400
H778        H  0.38118459  0.61571829  0.91683328     0.16500
H779        H  0.23376089  0.62400294  0.91924042     0.16400
C780        C  0.33232826  0.66522108  0.68912696     0.30300
C781        C  0.33174341  0.66491915  0.76860590     0.30300
C782        C  0.35841197  0.64647668  0.70865959    -0.05900
C783        C  0.35036605  0.70945447  0.70878600    -0.06700
C784        C  0.28805973  0.63795425  0.70880912    -0.06600
C785        C  0.35875311  0.64755831  0.74912761    -0.05900
C786        C  0.35081941  0.70939275  0.74905382    -0.06700
C787        C  0.28821528  0.63937591  0.74901055    -0.06600
C788        C  0.38340889  0.63042168  0.76139268    -0.32000
N789        N  0.39627044  0.61693768  0.73007637     0.14500
C790        C  0.38111297  0.62600861  0.69773138    -0.32000
H791        H  0.38520313  0.61693625  0.66881100     0.16500
C792        C  0.37380041  0.75184833  0.76039615    -0.30900
N793        N  0.38464673  0.77723495  0.72859973     0.13300
C794        C  0.37074982  0.75197713  0.69670540    -0.30900
C795        C  0.24648408  0.61729200  0.76169567    -0.31200
N796        N  0.22085051  0.60129834  0.73049858     0.13800
H797        H  0.23542402  0.61332406  0.79142638     0.16400
C798        C  0.24556838  0.61257835  0.69801605    -0.31200
H799        H  0.23335149  0.60413446  0.66892311     0.16400
H800        H  0.37638557  0.76361237  0.66717557     0.16400
H801        H  0.39091749  0.62713170  0.79098082     0.16500
H802        H  0.38299758  0.76389668  0.78953305     0.16400
C803        C  0.16806708  0.83540851  0.56102878     0.30300
C804        C  0.16831462  0.83661218  0.98152192     0.30300
C805        C  0.14826574  0.86020094  0.54205362    -0.05900
C806        C  0.21243665  0.85420458  0.54108979    -0.06700
C807        C  0.14344892  0.79056182  0.54097574    -0.06600
C808        C  0.14706300  0.85941322  0.00183710    -0.05900
C809        C  0.21205923  0.85584921  0.00089850    -0.06700
C810        C  0.14345742  0.79162746  0.00046360    -0.06600
C811        C  0.12350187  0.87817068  0.99096614    -0.32000
N812        N  0.11352005  0.89332163  0.52296068     0.14500
C813        C  0.12807406  0.88241692  0.55459272    -0.32000
H814        H  0.12349867  0.88925590  0.58420941     0.16500
C815        C  0.25366848  0.87497136  0.98797870    -0.30900
N816        N  0.27946289  0.88404738  0.51897802     0.13300
C817        C  0.25493413  0.87072636  0.55158713    -0.32100
C818        C  0.11958774  0.74973678  0.98778821    -0.31200
N819        N  0.10612957  0.72322116  0.51890489     0.13800
H820        H  0.11223319  0.73897023  0.95812322     0.16400
C821        C  0.12073893  0.74730243  0.55149587    -0.31200
H822        H  0.11581688  0.73397705  0.58035271     0.16400
H823        H  0.26723396  0.87362426  0.58054524     0.16400
H824        H  0.11412681  0.88080058  0.96190196     0.16500
H825        H  0.26451798  0.88165098  0.95817956     0.16400
C826        C  0.16681526  0.83252900  0.73166899     0.30300
C827        C  0.16816302  0.83280444  0.81117321     0.30300
C828        C  0.14276011  0.85225367  0.75200675    -0.05900
C829        C  0.14846019  0.78817829  0.75125345    -0.06700
C830        C  0.21142571  0.85678172  0.75044337    -0.06600
C831        C  0.14241773  0.85202036  0.79230237    -0.05900
C832        C  0.14735086  0.78787499  0.79166567    -0.06700
C833        C  0.21203609  0.85770749  0.79073578    -0.06600
C834        C  0.11714011  0.86950595  0.80370715    -0.32000
N835        N  0.10414769  0.88122256  0.77143144     0.14500
C836        C  0.11961098  0.87091382  0.73988162    -0.32000
H837        H  0.11417033  0.87649661  0.71022610     0.16500
C838        C  0.12599449  0.74496450  0.80296122    -0.30900
N839        N  0.11685091  0.72022318  0.77080241     0.13300
C840        C  0.13084880  0.74610080  0.73928919    -0.30900
C841        C  0.25449152  0.88072749  0.80192034    -0.31200
N842        N  0.27921439  0.89227311  0.76949133     0.13800
H843        H  0.26647278  0.88761181  0.83120834     0.16400
C844        C  0.25354551  0.87708866  0.73818638    -0.31200
H845        H  0.26518090  0.88051413  0.70871899     0.16400
H846        H  0.12788120  0.73481162  0.70980534     0.16400
H847        H  0.10912475  0.87391209  0.83295918     0.16500
H848        H  0.11708534  0.73254289  0.83208050     0.16400
O849        O  0.44418338  0.51866762  0.52475186    -0.88100
C850        C  0.43585388  0.93514301  0.93983394     0.88000
Mg851      Mg  0.49113543  0.58632047  0.52337739     1.58100
O852        O  0.48193600  0.92694451  0.52670871    -0.87800
O853        O  0.42440526  0.96327568  0.56305099    -0.75100
C854        C  0.17538289  0.59334039  0.98343461     0.93000
O855        O  0.46415730  0.53760645  0.93363742    -0.74900
O856        O  0.15622841  0.61415619  0.97533937    -0.82400
Mg857      Mg  0.40759422  0.99155729  0.97240859     1.58000
C858        C  0.09204420  0.91768850  0.52132414     0.92900
O859        O  0.34460404  0.94411975  0.50308429    -0.80700
H860        H  0.47719428  0.91514541  0.58353380    -0.06100
C861        C  0.06706072  0.49892594  0.94224169     0.87900
O862        O  0.03598812  0.57647178  0.56358292    -0.75200
O863        O  0.42773190  0.94438787  0.97207030    -0.88000
O864        O  0.05422395  0.89913239  0.50784004    -0.80800
C865        C  0.42048635  0.82458280  0.98195293     0.93100
C866        C  0.32513158  0.90568485  0.51623137     0.92900
Mg867      Mg  0.09238179  0.50876572  0.52764586     1.58000
O868        O  0.15576925  0.55528641  0.99737187    -0.80700
O869        O  0.03542450  0.96338648  0.56597168    -0.75000
O870        O  0.40091550  0.84367015  0.99465472    -0.80800
O871        O  0.38570109  0.54098028  0.97299490    -0.82500
O872        O  0.10108217  0.65736265  0.50458750    -0.80800
C873        C  0.99729748  0.93376608  0.55950517     0.87300
O874        O  0.07287926  0.55656713  0.52694271    -0.88000
O875        O  0.05655867  0.98258846  0.97475533    -0.88100
O876        O  0.07594347  0.53742668  0.93587245    -0.75100
Mg877      Mg  0.41533820  0.90678021  0.52477039     1.58000
O878        O  0.46053614  0.84449825  0.97490525    -0.82500
H879        H  0.43397095  0.52138283  0.58134422    -0.06200
O880        O  0.01854038  0.57443566  0.97198786    -0.87800
H881        H  0.02212176  0.58556269  0.91507534    -0.06100
H882        H  0.08311547  0.56636536  0.58375023    -0.06200
C883        C  0.50252365  0.56719070  0.93943490     0.87300
C884        C  0.43377894  0.00203461  0.55716319     0.87900
C885        C  0.06529949  0.56689264  0.55890800     0.87900
H886        H  0.06697879  0.97935069  0.91829918    -0.06200
O887        O  0.46558108  0.92624712  0.93480711    -0.75200
Mg888      Mg  0.08546772  0.59388608  0.97408182     1.58000
H889        H  0.41826189  0.93624625  0.91505383    -0.06200
C890        C  0.40554328  0.58134851  0.97944245     0.92900
O891        O  0.04145993  0.65800583  0.52215805    -0.82500
C892        C  0.08186302  0.67722237  0.51624579     0.93000
O893        O  0.34446430  0.88492916  0.52356038    -0.82500
Mg894      Mg  0.00960914  0.91560365  0.97515039     1.58200
O895        O  0.44424726  0.60156512  0.99119608    -0.80800
O896        O  0.11287681  0.95794433  0.52850389    -0.82500
O897        O  0.01799246  0.94245377  0.72341790    -0.88100
C898        C  0.43334968  0.93115468  0.80805162     0.88000
Mg899      Mg  0.08464268  0.98909880  0.72492608     1.58100
O900        O  0.42723166  0.98162156  0.72276829    -0.87800
O901        O  0.46424814  0.92517665  0.68445302    -0.75100
C902        C  0.09448396  0.67426602  0.76875152     0.93000
O903        O  0.03550172  0.96003647  0.81500955    -0.74900
O904        O  0.11485909  0.65430417  0.77516561    -0.82400
Mg905      Mg  0.49069380  0.90441039  0.77548008     1.58000
C906        C  0.41959721  0.59429239  0.73243600     0.92900
O907        O  0.44481599  0.84214449  0.74388164    -0.80700
H908        H  0.41654530  0.97993750  0.66597506    -0.06100
C909        C  0.99824506  0.56402309  0.80928549     0.87900
O910        O  0.07553464  0.53570375  0.68591184    -0.75200
O911        O  0.44388885  0.92478315  0.77569288    -0.88000
O912        O  0.39986279  0.55538302  0.74450598    -0.80800
C913        C  0.32490185  0.91665407  0.76693704     0.93100
C914        C  0.40693404  0.82316928  0.73037804     0.92900
Mg915      Mg  0.00939025  0.59284199  0.72499762     1.58000
O916        O  0.05592234  0.65522713  0.75676138    -0.80700
O917        O  0.46416804  0.53750890  0.68533102    -0.75000
O918        O  0.34458956  0.89793738  0.75369652    -0.80800
O919        O  0.04008977  0.88252073  0.77586057    -0.82500
O920        O  0.15614205  0.59770270  0.74570296    -0.80800
C921        C  0.43465151  0.49880378  0.69055734     0.87300
O922        O  0.05627674  0.57219263  0.72387702    -0.88000
O923        O  0.48200623  0.55454711  0.77684368    -0.88100
O924        O  0.03666867  0.57302290  0.81497480    -0.75100
Mg925      Mg  0.40764170  0.91433032  0.72297800     1.58000
O926        O  0.34396284  0.95691590  0.77415858    -0.82500
H927        H  0.02223357  0.93473056  0.66658031    -0.06200
O928        O  0.07278494  0.51548261  0.77720358    -0.87800
H929        H  0.08308534  0.51775404  0.83410987    -0.06100
H930        H  0.06619515  0.58411941  0.66716278    -0.06200
C931        C  0.06512813  0.99864232  0.80957577     0.87300
C932        C  0.50235946  0.93358928  0.69072032     0.87900
C933        C  0.06643977  0.56534615  0.69152640     0.87900
H934        H  0.47881873  0.56328671  0.83364954    -0.06200
O935        O  0.42423581  0.96072657  0.81391618    -0.75200
Mg936      Mg  0.09309205  0.58284094  0.77622785     1.58000
H937        H  0.43343028  0.91210377  0.83225253    -0.06200
C938        C  0.08025505  0.90319964  0.76915150     0.92900
O939        O  0.15534948  0.53790839  0.72570923    -0.82500
C940        C  0.17516206  0.57806436  0.73290486     0.93000
O941        O  0.38677351  0.84308537  0.72280578    -0.82500
Mg942      Mg  0.41493514  0.50733227  0.77523784     1.58200
O943        O  0.09941247  0.94168717  0.75623074    -0.80800
O944        O  0.45984833  0.61468886  0.72595159    -0.82500
C945        C  0.17786042  0.80738881  0.91786508    -0.20000
C946        C  0.17183107  0.83867004  0.93722951    -0.06600
C947        C  0.17888312  0.87501782  0.91487587     0.14300
C948        C  0.17515820  0.87101345  0.87452859    -0.20100
C949        C  0.17195603  0.83482338  0.85527434    -0.06600
C950        C  0.18152404  0.80726959  0.87745487     0.14300
C951        C  0.20091770  0.78162952  0.86089491    -0.23400
H952        H  0.18327437  0.78491973  0.93447565     0.15600
H953        H  0.17873957  0.89822529  0.85786202     0.15600
C954        C  0.19653209  0.91996032  0.93098620    -0.23400
H955        H  0.23190630  0.79154871  0.87546461     0.05800
H956        H  0.20852598  0.78731472  0.82968582     0.09000
H957        H  0.17935362  0.74667665  0.86635473     0.09000
H958        H  0.20517264  0.92248700  0.96187700     0.09000
H959        H  0.17344859  0.93159990  0.92646320     0.09000
H960        H  0.22673092  0.94217380  0.91536791     0.05800
C961        C  0.19552139  0.87074896  0.66753334    -0.20000
C962        C  0.16431718  0.83399202  0.68740869    -0.06600
C963        C  0.12775396  0.80480361  0.66569386     0.14300
C964        C  0.13057394  0.80554028  0.62519150    -0.20100
C965        C  0.16686362  0.83723361  0.60525116    -0.06600
C966        C  0.19601882  0.87383400  0.62709151     0.14300
C967        C  0.22518181  0.91793090  0.60999833    -0.23400
H968        H  0.21794109  0.89891094  0.68364313     0.15600
H969        H  0.10247716  0.78314052  0.60919443     0.15600
C970        C  0.08388215  0.77567792  0.68300219    -0.23400
H971        H  0.21811359  0.94174612  0.62398991     0.05800
H972        H  0.22078867  0.92008826  0.57867342     0.09000
H973        H  0.25921292  0.92780100  0.61568159     0.09000
H974        H  0.08205828  0.77976664  0.71450500     0.09000
H975        H  0.07355277  0.74143689  0.67655317     0.09000
H976        H  0.06040463  0.78337107  0.66978813     0.05800
C977        C  0.32345862  0.69470208  0.83279703    -0.20000
C978        C  0.32788246  0.66271492  0.81285743    -0.06600
C979        C  0.32007387  0.62580500  0.83467658     0.14300
C980        C  0.32228721  0.62863365  0.87510083    -0.20100
C981        C  0.32794397  0.66550679  0.89493549    -0.06600
C982        C  0.32130949  0.69538125  0.87328256     0.14300
C983        C  0.30781868  0.72562163  0.89074027    -0.23400
H984        H  0.31827106  0.71763545  0.81682708     0.15600
H985        H  0.31633596  0.60026533  0.89118139     0.15600
C986        C  0.30545027  0.58174139  0.81755149    -0.23400
H987        H  0.27693388  0.71898691  0.87777867     0.05800
H988        H  0.33222887  0.75957459  0.88414087     0.09000
H989        H  0.30220225  0.72174972  0.92229501     0.09000
H990        H  0.32906468  0.57124920  0.82410836     0.09000
H991        H  0.30022709  0.58004364  0.78602318     0.09000
H992        H  0.27416872  0.55815302  0.83080384     0.05800
C993        C  0.30467023  0.67487017  0.58332228    -0.20000
C994        C  0.33609759  0.67022045  0.56281037    -0.06600
C995        C  0.37266264  0.67716475  0.58417163     0.14300
C996        C  0.36982237  0.67407575  0.62463671    -0.20100
C997        C  0.33350449  0.66893957  0.64499110    -0.06600
C998        C  0.30413259  0.67650463  0.62380412     0.14300
C999        C  0.27457490  0.69058197  0.64169231    -0.23400
H1000       H  0.28211694  0.68076698  0.56777288     0.15600
H1001       H  0.39794559  0.67946775  0.64032168     0.15600
C1002       C  0.41648682  0.69222816  0.56657836    -0.23400
H1003       H  0.28165938  0.72189601  0.62878336     0.05800
H1004       H  0.27841622  0.69596606  0.67321021     0.09000
H1005       H  0.24066421  0.66648078  0.63537663     0.09000
H1006       H  0.41812564  0.69829391  0.53514036     0.09000
H1007       H  0.42693830  0.66834803  0.57247236     0.09000
H1008       H  0.43996668  0.72333339  0.58004890     0.05800
C1009       C  0.83348669  0.16692770  0.01852021     0.30300
C1010       C  0.83196393  0.16692962  0.43902952     0.30300
C1011       C  0.85059214  0.14008456  0.99830126    -0.05900
C1012       C  0.78890743  0.14775035  0.99988365    -0.06700
C1013       C  0.85860492  0.21089000  0.99867591    -0.06600
C1014       C  0.85110543  0.14083783  0.45785239    -0.05900
C1015       C  0.78824541  0.14865017  0.45963027    -0.06700
C1016       C  0.85931754  0.21130585  0.45841129    -0.06600
C1017       C  0.87226525  0.11912074  0.44603735    -0.32000
N1018       N  0.88228411  0.10405422  0.47790801     0.14500
C1019       C  0.86858684  0.11588374  0.00973639    -0.32000
H1020       H  0.87237861  0.10802958  0.03909242     0.16500
C1021       C  0.74577172  0.12890924  0.44850169    -0.30900
N1022       N  0.72107194  0.11481176  0.98088537     0.13300
C1023       C  0.74678810  0.12497841  0.01210477    -0.30900
C1024       C  0.88495836  0.25399068  0.44732655    -0.31200
N1025       N  0.89724114  0.27865278  0.97972768     0.13800
H1026       H  0.89310139  0.26639365  0.41813919     0.16400
C1027       C  0.88150322  0.25275200  0.01111786    -0.31200
H1028       H  0.88623199  0.26372978  0.04083487     0.16400
H1029       H  0.73519361  0.11571543  0.04145663     0.16400
H1030       H  0.88118458  0.11571830  0.41683326     0.16500
H1031       H  0.73376092  0.12400290  0.41924032     0.16400
C1032       C  0.83232824  0.16522103  0.18912698     0.30300
C1033       C  0.83174338  0.16491908  0.26860594     0.30300
C1034       C  0.85841197  0.14647663  0.20865959    -0.05900
C1035       C  0.85036601  0.20945439  0.20878605    -0.06700
C1036       C  0.78805971  0.13795423  0.20880914    -0.06600
C1037       C  0.85875310  0.14755826  0.24912762    -0.05900
C1038       C  0.85081935  0.20939267  0.24905388    -0.06700
C1039       C  0.78821524  0.13937582  0.24901057    -0.06600
C1040       C  0.88340895  0.13042169  0.26139271    -0.32000
N1041       N  0.89627055  0.11693774  0.23007640     0.14500
C1042       C  0.88111309  0.12600867  0.19773140    -0.32000
H1043       H  0.88520340  0.11693646  0.16881101     0.16500
C1044       C  0.87380033  0.25184826  0.26039622    -0.30900
N1045       N  0.88464662  0.27723484  0.22859976     0.13300
C1046       C  0.87074970  0.25197703  0.19670545    -0.30900
C1047       C  0.74648402  0.11729178  0.26169565    -0.31200
N1048       N  0.72085049  0.10129818  0.23049853     0.13800
H1049       H  0.73542390  0.11332380  0.29142634     0.16400
C1050       C  0.74556839  0.11257836  0.19801603    -0.31200
H1051       H  0.73335154  0.10413458  0.16892304     0.16400
H1052       H  0.87638538  0.26361224  0.16717561     0.16400
H1053       H  0.89091756  0.12713174  0.29098082     0.16500
H1054       H  0.88299750  0.26389662  0.28953308     0.16400
C1055       C  0.66806703  0.33540851  0.06102876     0.30300
C1056       C  0.66831471  0.33661222  0.48152196     0.30300
C1057       C  0.64826561  0.36020084  0.04205354    -0.05900
C1058       C  0.71243660  0.35420462  0.04108982    -0.06700
C1059       C  0.64344899  0.29056181  0.04097571    -0.06600
C1060       C  0.64706317  0.35941337  0.50183718    -0.05900
C1061       C  0.71205931  0.35584914  0.50089852    -0.06700
C1062       C  0.64345739  0.29162749  0.50046364    -0.06600
C1063       C  0.62350195  0.37817077  0.49096625    -0.32000
N1064       N  0.61352008  0.39332168  0.02296052     0.14500
C1065       C  0.62807405  0.38241694  0.05459257    -0.32000
H1066       H  0.62349876  0.38925605  0.08420924     0.16500
C1067       C  0.75366856  0.37497128  0.48797870    -0.30900
N1068       N  0.77946283  0.38404736  0.01897807     0.13300
C1069       C  0.75493405  0.37072627  0.05158719    -0.32100
C1070       C  0.61958776  0.24973679  0.48778823    -0.31200
N1071       N  0.60612952  0.22322118  0.01890484     0.13800
H1072       H  0.61223319  0.23897026  0.45812330     0.16400
C1073       C  0.62073892  0.24730242  0.05149584    -0.31200
H1074       H  0.61581679  0.23397701  0.08035262     0.16400
H1075       H  0.76723386  0.37362401  0.08054530     0.16400
H1076       H  0.61412684  0.38080066  0.46190208     0.16500
H1077       H  0.76451804  0.38165091  0.45817956     0.16400
C1078       C  0.66681525  0.33252898  0.23166898     0.30300
C1079       C  0.66816297  0.33280434  0.31117320     0.30300
C1080       C  0.64276010  0.35225362  0.25200674    -0.05900
C1081       C  0.64846018  0.28817826  0.25125343    -0.06700
C1082       C  0.71142569  0.35678167  0.25044337    -0.06600
C1083       C  0.64241772  0.35202027  0.29230236    -0.05900
C1084       C  0.64735079  0.28787492  0.29166565    -0.06700
C1085       C  0.71203606  0.35770735  0.29073578    -0.06600
C1086       C  0.61714007  0.36950581  0.30370716    -0.32000
N1087       N  0.60414774  0.38122253  0.27143144     0.14500
C1088       C  0.61961094  0.37091374  0.23988162    -0.32000
H1089       H  0.61417021  0.37649650  0.21022607     0.16500
C1090       C  0.62599444  0.24496443  0.30296121    -0.30900
N1091       N  0.61685086  0.22022314  0.27080239     0.13300
C1092       C  0.63084888  0.24610079  0.23928919    -0.30900
C1093       C  0.75449149  0.38072737  0.30192034    -0.31200
N1094       N  0.77921434  0.39227312  0.26949133     0.13800
H1095       H  0.76647275  0.38761169  0.33120833     0.16400
C1096       C  0.75354548  0.37708870  0.23818636    -0.31200
H1097       H  0.76518088  0.38051419  0.20871902     0.16400
H1098       H  0.62788142  0.23481163  0.20980534     0.16400
H1099       H  0.60912465  0.37391184  0.33295915     0.16500
H1100       H  0.61708535  0.23254280  0.33208051     0.16400
O1101       O  0.94418336  0.01866760  0.02475186    -0.88100
C1102       C  0.93585392  0.43514301  0.43983399     0.88000
Mg1103     Mg  0.99113544  0.08632050  0.02337735     1.58100
O1104       O  0.98193598  0.42694459  0.02670873    -0.87800
O1105       O  0.92440521  0.46327569  0.06305110    -0.75100
C1106       C  0.67538295  0.09334040  0.48343456     0.93000
O1107       O  0.96415734  0.03760640  0.43363733    -0.74900
O1108       O  0.65622855  0.11415628  0.47533928    -0.82400
Mg1109     Mg  0.90759426  0.49155727  0.47240856     1.58000
C1110       C  0.59204422  0.41768857  0.02132397     0.92900
O1111       O  0.84460395  0.44411968  0.00308415    -0.80700
H1112       H  0.97719434  0.41514561  0.08353384    -0.06100
C1113       C  0.56706070  0.99892596  0.44224176     0.87900
O1114       O  0.53598820  0.07647185  0.06358285    -0.75200
O1115       O  0.92773196  0.44438790  0.47207034    -0.88000
O1116       O  0.55422395  0.39913244  0.00783994    -0.80800
C1117       C  0.92048642  0.32458272  0.48195298     0.93100
C1118       C  0.82513152  0.40568482  0.01623134     0.92900
Mg1119     Mg  0.59238170  0.00876570  0.02764582     1.58000
O1120       O  0.65576923  0.05528644  0.49737187    -0.80700
O1121       O  0.53542446  0.46338641  0.06597156    -0.75000
O1122       O  0.90091557  0.34367011  0.49465468    -0.80800
O1123       O  0.88570101  0.04098017  0.47299477    -0.82500
O1124       O  0.60108228  0.15736269  0.00458763    -0.80800
C1125       C  0.49729738  0.43376611  0.05950507     0.87300
O1126       O  0.57287923  0.05656707  0.02694270    -0.88000
O1127       O  0.55655858  0.48258839  0.47475540    -0.88100
O1128       O  0.57594349  0.03742670  0.43587246    -0.75100
Mg1129     Mg  0.91533819  0.40678025  0.02477046     1.58000
O1130       O  0.96053620  0.34449816  0.47490524    -0.82500
H1131       H  0.93397089  0.02138296  0.08134419    -0.06200
O1132       O  0.51854033  0.07443572  0.47198784    -0.87800
H1133       H  0.52212180  0.08556272  0.41507530    -0.06100
H1134       H  0.58311534  0.06636515  0.08375023    -0.06200
C1135       C  0.00252364  0.06719068  0.43943486     0.87300
C1136       C  0.93377879  0.50203459  0.05716325     0.87900
C1137       C  0.56529949  0.06689258  0.05890799     0.87900
H1138       H  0.56697856  0.47935045  0.41829925    -0.06200
O1139       O  0.96558103  0.42624699  0.43480719    -0.75200
Mg1140     Mg  0.58546773  0.09388610  0.47408176     1.58000
H1141       H  0.91826200  0.43624634  0.41505389    -0.06200
C1142       C  0.90554324  0.08134839  0.47944236     0.92900
O1143       O  0.54145994  0.15800579  0.02215798    -0.82500
C1144       C  0.58186304  0.17722238  0.01624576     0.93000
O1145       O  0.84446426  0.38492917  0.02356035    -0.82500
Mg1146     Mg  0.50960912  0.41560363  0.47515034     1.58200
O1147       O  0.94424722  0.10156492  0.49119601    -0.80800
O1148       O  0.61287684  0.45794439  0.02850375    -0.82500
O1149       O  0.51799237  0.44245374  0.22341792    -0.88100
C1150       C  0.93334960  0.43115452  0.30805161     0.88000
Mg1151     Mg  0.58464269  0.48909882  0.22492610     1.58100
O1152       O  0.92723163  0.48162151  0.22276842    -0.87800
O1153       O  0.96424814  0.42517665  0.18445303    -0.75100
C1154       C  0.59448400  0.17426599  0.26875150     0.93000
O1155       O  0.53550180  0.46003626  0.31500941    -0.74900
O1156       O  0.61485918  0.15430420  0.27516565    -0.82400
Mg1157     Mg  0.99069364  0.40441022  0.27548003     1.58000
C1158       C  0.91959729  0.09429242  0.23243606     0.92900
O1159       O  0.94481583  0.34214434  0.24388171    -0.80700
H1160       H  0.91654526  0.47993753  0.16597519    -0.06100
C1161       C  0.49824514  0.06402318  0.30928550     0.87900
O1162       O  0.57553464  0.03570371  0.18591178    -0.75200
O1163       O  0.94388867  0.42478286  0.27569288    -0.88000
O1164       O  0.89986287  0.05538308  0.24450613    -0.80800
C1165       C  0.82490180  0.41665405  0.26693706     0.93100
C1166       C  0.90693393  0.32316915  0.23037803     0.92900
Mg1167     Mg  0.50939019  0.09284191  0.22499765     1.58000
O1168       O  0.55592240  0.15522705  0.25676130    -0.80700
O1169       O  0.96416797  0.03750887  0.18533115    -0.75000
O1170       O  0.84458948  0.39793738  0.25369644    -0.80800
O1171       O  0.54008977  0.38252054  0.27586044    -0.82500
O1172       O  0.65614211  0.09770274  0.24570277    -0.80800
C1173       C  0.93465139  0.99880377  0.19055746     0.87300
O1174       O  0.55627675  0.07219256  0.22387701    -0.88000
O1175       O  0.98200622  0.05454705  0.27684377    -0.88100
O1176       O  0.53666877  0.07302298  0.31497471    -0.75100
Mg1177     Mg  0.90764164  0.41433025  0.22297801     1.58000
O1178       O  0.84396282  0.45691585  0.27415878    -0.82500
H1179       H  0.52223339  0.43473028  0.16658040    -0.06200
O1180       O  0.57278491  0.01548255  0.27720355    -0.87800
H1181       H  0.58308508  0.01775386  0.33410985    -0.06100
H1182       H  0.56619509  0.08411938  0.16716280    -0.06200
C1183       C  0.56512807  0.49864220  0.30957572     0.87300
C1184       C  0.00235942  0.43358917  0.19072036     0.87900
C1185       C  0.56643976  0.06534610  0.19152637     0.87900
H1186       H  0.97881891  0.06328690  0.33364963    -0.06200
O1187       O  0.92423596  0.46072657  0.31391615    -0.75200
Mg1188     Mg  0.59309213  0.08284093  0.27622781     1.58000
H1189       H  0.93343006  0.41210359  0.33225254    -0.06200
C1190       C  0.58025508  0.40319958  0.26915156     0.92900
O1191       O  0.65534942  0.03790830  0.22570930    -0.82500
C1192       C  0.67516205  0.07806430  0.23290479     0.93000
O1193       O  0.88677342  0.34308525  0.22280567    -0.82500
Mg1194     Mg  0.91493511  0.00733226  0.27523790     1.58200
O1195       O  0.59941250  0.44168717  0.25623091    -0.80800
O1196       O  0.95984839  0.11468883  0.22595156    -0.82500
C1197       C  0.67786063  0.30738888  0.41786511    -0.20000
C1198       C  0.67183121  0.33867007  0.43722954    -0.06600
C1199       C  0.67888301  0.37501773  0.41487585     0.14300
C1200       C  0.67515791  0.37101325  0.37452861    -0.20100
C1201       C  0.67195592  0.33482325  0.35527435    -0.06600
C1202       C  0.68152407  0.30726954  0.37745488     0.14300
C1203       C  0.70091786  0.28162961  0.36089484    -0.23400
H1204       H  0.68327468  0.28491987  0.43447569     0.15600
H1205       H  0.67873911  0.39822504  0.35786204     0.15600
C1206       C  0.69653202  0.41996025  0.43098610    -0.23400
H1207       H  0.73190656  0.29154898  0.37546440     0.05800
H1208       H  0.70852603  0.28731478  0.32968574     0.09000
H1209       H  0.67935399  0.24667671  0.36635473     0.09000
H1210       H  0.70517272  0.42248695  0.46187686     0.09000
H1211       H  0.67344844  0.43159977  0.42646322     0.09000
H1212       H  0.72673075  0.44217374  0.41536768     0.05800
C1213       C  0.69552145  0.37074895  0.16753331    -0.20000
C1214       C  0.66431717  0.33399205  0.18740867    -0.06600
C1215       C  0.62775395  0.30480366  0.16569382     0.14300
C1216       C  0.63057396  0.30554029  0.12519148    -0.20100
C1217       C  0.66686358  0.33723365  0.10525114    -0.06600
C1218       C  0.69601882  0.37383403  0.12709150     0.14300
C1219       C  0.72518182  0.41793095  0.10999836    -0.23400
H1220       H  0.71794122  0.39891095  0.18364308     0.15600
H1221       H  0.60247721  0.28314047  0.10919440     0.15600
C1222       C  0.58388214  0.27567794  0.18300211    -0.23400
H1223       H  0.71811371  0.44174621  0.12399004     0.05800
H1224       H  0.72078862  0.42008838  0.07867348     0.09000
H1225       H  0.75921294  0.42780102  0.11568157     0.09000
H1226       H  0.58205826  0.27976665  0.21450492     0.09000
H1227       H  0.57355281  0.24143693  0.17655307     0.09000
H1228       H  0.56040462  0.28337110  0.16978805     0.05800
C1229       C  0.82345852  0.19470200  0.33279706    -0.20000
C1230       C  0.82788248  0.16271491  0.31285746    -0.06600
C1231       C  0.82007389  0.12580501  0.33467660     0.14300
C1232       C  0.82228725  0.12863367  0.37510085    -0.20100
C1233       C  0.82794409  0.16550685  0.39493549    -0.06600
C1234       C  0.82130949  0.19538123  0.37328259     0.14300
C1235       C  0.80781860  0.22562151  0.39074038    -0.23400
H1236       H  0.81827080  0.21763527  0.31682708     0.15600
H1237       H  0.81633593  0.10026535  0.39118141     0.15600
C1238       C  0.80545026  0.08174141  0.31755146    -0.23400
H1239       H  0.77693375  0.21898671  0.37777884     0.05800
H1240       H  0.83222873  0.25957450  0.38414101     0.09000
H1241       H  0.80220222  0.22174958  0.42229513     0.09000
H1242       H  0.82906466  0.07124922  0.32410830     0.09000
H1243       H  0.80022710  0.08004368  0.28602316     0.09000
H1244       H  0.77416868  0.05815306  0.33080377     0.05800
C1245       C  0.80467012  0.17487007  0.08332230    -0.20000
C1246       C  0.83609756  0.17022050  0.06281037    -0.06600
C1247       C  0.87266263  0.17716483  0.08417161     0.14300
C1248       C  0.86982234  0.17407576  0.12463669    -0.20100
C1249       C  0.83350447  0.16893953  0.14499110    -0.06600
C1250       C  0.80413252  0.17650455  0.12380415     0.14300
C1251       C  0.77457481  0.19058184  0.14169238    -0.23400
H1252       H  0.78211672  0.18076680  0.06777293     0.15600
H1253       H  0.89794555  0.17946777  0.14032164     0.15600
C1254       C  0.91648685  0.19222831  0.06657839    -0.23400
H1255       H  0.78165911  0.22189581  0.12878340     0.05800
H1256       H  0.77841621  0.19596602  0.17321027     0.09000
H1257       H  0.74066412  0.16648058  0.13537679     0.09000
H1258       H  0.91812573  0.19829411  0.03514040     0.09000
H1259       H  0.92693835  0.16834820  0.07247245     0.09000
H1260       H  0.93996666  0.22333355  0.08004897     0.05800
C1261       C  0.83348669  0.16692765  0.51852023     0.30300
C1262       C  0.83196387  0.16692958  0.93902952     0.30300
C1263       C  0.85059203  0.14008443  0.49830128    -0.05900
C1264       C  0.78890747  0.14775043  0.49988362    -0.06700
C1265       C  0.85860505  0.21088996  0.49867596    -0.06600
C1266       C  0.85110549  0.14083790  0.95785238    -0.05900
C1267       C  0.78824536  0.14865005  0.95963031    -0.06700
C1268       C  0.85931740  0.21130586  0.95841124    -0.06600
C1269       C  0.87226525  0.11912072  0.94603739    -0.32000
N1270       N  0.88228410  0.10405423  0.97790806     0.14500
C1271       C  0.86858681  0.11588367  0.50973636    -0.32000
H1272       H  0.87237861  0.10802953  0.53909239     0.16500
C1273       C  0.74577167  0.12890925  0.94850175    -0.30900
N1274       N  0.72107201  0.11481170  0.48088531     0.13300
C1275       C  0.74678816  0.12497839  0.51210473    -0.30900
C1276       C  0.88495826  0.25399070  0.94732648    -0.31200
N1277       N  0.89724119  0.27865273  0.47972776     0.13800
H1278       H  0.89310133  0.26639364  0.91813907     0.16400
C1279       C  0.88150329  0.25275196  0.51111793    -0.31200
H1280       H  0.88623202  0.26372976  0.54083495     0.16400
H1281       H  0.73519369  0.11571536  0.54145660     0.16400
H1282       H  0.88118461  0.11571826  0.91683328     0.16500
H1283       H  0.73376091  0.12400296  0.91924042     0.16400
C1284       C  0.83232825  0.16522106  0.68912697     0.30300
C1285       C  0.83174341  0.16491911  0.76860591     0.30300
C1286       C  0.85841196  0.14647665  0.70865959    -0.05900
C1287       C  0.85036606  0.20945444  0.70878603    -0.06700
C1288       C  0.78805971  0.13795423  0.70880911    -0.06600
C1289       C  0.85875311  0.14755828  0.74912761    -0.05900
C1290       C  0.85081943  0.20939271  0.74905384    -0.06700
C1291       C  0.78821528  0.13937586  0.74901055    -0.06600
C1292       C  0.88340890  0.13042166  0.76139268    -0.32000
N1293       N  0.89627049  0.11693772  0.73007636     0.14500
C1294       C  0.88111298  0.12600861  0.69773136    -0.32000
H1295       H  0.88520317  0.11693627  0.66881098     0.16500
C1296       C  0.87380043  0.25184831  0.76039619    -0.30900
N1297       N  0.88464674  0.27723492  0.72859975     0.13300
C1298       C  0.87074980  0.25197709  0.69670544    -0.30900
C1299       C  0.74648408  0.11729195  0.76169568    -0.31200
N1300       N  0.72085050  0.10129831  0.73049859     0.13800
H1301       H  0.73542404  0.11332401  0.79142640     0.16400
C1302       C  0.74556834  0.11257840  0.69801605    -0.31200
H1303       H  0.73335141  0.10413461  0.66892310     0.16400
H1304       H  0.87638547  0.26361229  0.66717561     0.16400
H1305       H  0.89091752  0.12713168  0.79098081     0.16500
H1306       H  0.88299760  0.26389667  0.78953304     0.16400
C1307       C  0.66806709  0.33540853  0.56102879     0.30300
C1308       C  0.66831464  0.33661215  0.98152193     0.30300
C1309       C  0.64826571  0.36020094  0.54205364    -0.05900
C1310       C  0.71243666  0.35420457  0.54108980    -0.06700
C1311       C  0.64344895  0.29056184  0.54097575    -0.06600
C1312       C  0.64706300  0.35941319  0.00183710    -0.05900
C1313       C  0.71205924  0.35584918  0.00089853    -0.06700
C1314       C  0.64345743  0.29162744  0.00046360    -0.06600
C1315       C  0.62350191  0.37817072  0.99096614    -0.32000
N1316       N  0.61351993  0.39332155  0.52296064     0.14500
C1317       C  0.62807392  0.38241684  0.55459270    -0.32000
H1318       H  0.62349847  0.38925585  0.58420937     0.16500
C1319       C  0.75366850  0.37497133  0.98797875    -0.30900
N1320       N  0.77946290  0.38404735  0.51897802     0.13300
C1321       C  0.75493414  0.37072633  0.55158713    -0.32100
C1322       C  0.61958776  0.24973676  0.98778820    -0.31200
N1323       N  0.60612961  0.22322120  0.51890488     0.13800
H1324       H  0.61223322  0.23897020  0.95812322     0.16400
C1325       C  0.62073896  0.24730244  0.55149587    -0.31200
H1326       H  0.61581690  0.23397704  0.58035269     0.16400
H1327       H  0.76723397  0.37362424  0.58054525     0.16400
H1328       H  0.61412681  0.38080059  0.96190197     0.16500
H1329       H  0.76451801  0.38165095  0.95817963     0.16400
C1330       C  0.66681525  0.33252901  0.73166899     0.30300
C1331       C  0.66816297  0.33280442  0.81117320     0.30300
C1332       C  0.64276011  0.35225370  0.75200675    -0.05900
C1333       C  0.64846013  0.28817829  0.75125344    -0.06700
C1334       C  0.71142570  0.35678174  0.75044336    -0.06600
C1335       C  0.64241772  0.35202037  0.79230237    -0.05900
C1336       C  0.64735078  0.28787497  0.79166566    -0.06700
C1337       C  0.71203606  0.35770746  0.79073576    -0.06600
C1338       C  0.61714012  0.36950600  0.80370714    -0.32000
N1339       N  0.60414781  0.38122275  0.77143144     0.14500
C1340       C  0.61961101  0.37091391  0.73988162    -0.32000
H1341       H  0.61417032  0.37649663  0.71022610     0.16500
C1342       C  0.62599447  0.24496447  0.80296121    -0.30900
N1343       N  0.61685093  0.22022317  0.77080239     0.13300
C1344       C  0.63084881  0.24610081  0.73928918    -0.30900
C1345       C  0.75449148  0.38072749  0.80192035    -0.31200
N1346       N  0.77921438  0.39227313  0.76949134     0.13800
H1347       H  0.76647269  0.38761182  0.83120834     0.16400
C1348       C  0.75354553  0.37708875  0.73818639    -0.31200
H1349       H  0.76518095  0.38051432  0.70871900     0.16400
H1350       H  0.62788121  0.23481162  0.70980532     0.16400
H1351       H  0.60912467  0.37391201  0.83295917     0.16500
H1352       H  0.61708536  0.23254282  0.83208050     0.16400
O1353       O  0.94418342  0.01866766  0.52475183    -0.88100
C1354       C  0.93585378  0.43514298  0.93983398     0.88000
Mg1355     Mg  0.99113544  0.08632049  0.52337737     1.58100
O1356       O  0.98193608  0.42694453  0.52670881    -0.87800
O1357       O  0.92440527  0.46327569  0.56305099    -0.75100
C1358       C  0.67538286  0.09334043  0.98343461     0.93000
O1359       O  0.96415733  0.03760640  0.93363738    -0.74900
O1360       O  0.65622844  0.11415628  0.97533932    -0.82400
Mg1361     Mg  0.90759423  0.49155728  0.97240860     1.58000
C1362       C  0.59204412  0.41768847  0.52132406     0.92900
O1363       O  0.84460405  0.44411972  0.50308429    -0.80700
H1364       H  0.97719444  0.41514574  0.58353398    -0.06100
C1365       C  0.56706071  0.99892603  0.94224168     0.87900
O1366       O  0.53598811  0.07647176  0.56358292    -0.75200
O1367       O  0.92773187  0.44438785  0.97207037    -0.88000
O1368       O  0.55422387  0.39913237  0.50783998    -0.80800
C1369       C  0.92048635  0.32458277  0.98195298     0.93100
C1370       C  0.82513159  0.40568482  0.51623137     0.92900
Mg1371     Mg  0.59238175  0.00876567  0.52764587     1.58000
O1372       O  0.65576914  0.05528648  0.99737194    -0.80700
O1373       O  0.53542445  0.46338645  0.56597163    -0.75000
O1374       O  0.90091551  0.34367012  0.99465478    -0.80800
O1375       O  0.88570112  0.04098025  0.97299489    -0.82500
O1376       O  0.60108220  0.15736268  0.50458751    -0.80800
C1377       C  0.49729744  0.43376604  0.55950511     0.87300
O1378       O  0.57287924  0.05656710  0.52694271    -0.88000
O1379       O  0.55655868  0.48258854  0.97475535    -0.88100
O1380       O  0.57594355  0.03742680  0.93587247    -0.75100
Mg1381     Mg  0.91533824  0.40678021  0.52477041     1.58000
O1382       O  0.96053612  0.34449823  0.97490525    -0.82500
H1383       H  0.93397107  0.02138299  0.58134421    -0.06200
O1384       O  0.51854033  0.07443565  0.97198784    -0.87800
H1385       H  0.52212167  0.08556257  0.91507529    -0.06100
H1386       H  0.58311547  0.06636533  0.58375022    -0.06200
C1387       C  0.00252365  0.06719067  0.93943489     0.87300
C1388       C  0.93377887  0.50203460  0.55716319     0.87900
C1389       C  0.56529948  0.06689261  0.55890800     0.87900
H1390       H  0.56697880  0.47935068  0.91829921    -0.06200
O1391       O  0.96558096  0.42624707  0.93480708    -0.75200
Mg1392     Mg  0.58546770  0.09388610  0.97408182     1.58000
H1393       H  0.91826176  0.43624626  0.91505392    -0.06200
C1394       C  0.90554330  0.08134848  0.97944245     0.92900
O1395       O  0.54145995  0.15800587  0.52215806    -0.82500
C1396       C  0.58186304  0.17722240  0.51624576     0.93000
O1397       O  0.84446431  0.38492913  0.52356038    -0.82500
Mg1398     Mg  0.50960910  0.41560372  0.97515038     1.58200
O1399       O  0.94424726  0.10156509  0.99119609    -0.80800
O1400       O  0.61287674  0.45794430  0.52850383    -0.82500
O1401       O  0.51799234  0.44245378  0.72341792    -0.88100
C1402       C  0.93334968  0.43115466  0.80805162     0.88000
Mg1403     Mg  0.58464259  0.48909881  0.72492608     1.58100
O1404       O  0.92723166  0.48162155  0.72276829    -0.87800
O1405       O  0.96424814  0.42517660  0.68445298    -0.75100
C1406       C  0.59448399  0.17426601  0.76875146     0.93000
O1407       O  0.53550170  0.46003645  0.81500955    -0.74900
O1408       O  0.61485908  0.15430414  0.77516564    -0.82400
Mg1409     Mg  0.99069369  0.40441037  0.77548008     1.58000
C1410       C  0.91959732  0.09429251  0.73243599     0.92900
O1411       O  0.94481598  0.34214447  0.74388164    -0.80700
H1412       H  0.91654533  0.47993755  0.66597506    -0.06100
C1413       C  0.49824500  0.06402312  0.80928551     0.87900
O1414       O  0.57553463  0.03570372  0.68591183    -0.75200
O1415       O  0.94388880  0.42478312  0.77569287    -0.88000
O1416       O  0.89986293  0.05538314  0.74450596    -0.80800
C1417       C  0.82490185  0.41665405  0.76693707     0.93100
C1418       C  0.90693404  0.32316925  0.73037805     0.92900
Mg1419     Mg  0.50939026  0.09284203  0.72499757     1.58000
O1420       O  0.55592244  0.15522715  0.75676116    -0.80700
O1421       O  0.96416807  0.03750891  0.68533101    -0.75000
O1422       O  0.84458955  0.39793735  0.75369653    -0.80800
O1423       O  0.54008977  0.38252072  0.77586055    -0.82500
O1424       O  0.65614204  0.09770267  0.74570297    -0.80800
C1425       C  0.93465148  0.99880380  0.69055731     0.87300
O1426       O  0.55627672  0.07219258  0.72387702    -0.88000
O1427       O  0.98200623  0.05454720  0.77684364    -0.88100
O1428       O  0.53666861  0.07302287  0.81497479    -0.75100
Mg1429     Mg  0.90764170  0.41433029  0.72297799     1.58000
O1430       O  0.84396283  0.45691587  0.77415859    -0.82500
H1431       H  0.52223347  0.43473049  0.66658033    -0.06200
O1432       O  0.57278493  0.01548262  0.77720358    -0.87800
H1433       H  0.58308524  0.01775413  0.83410987    -0.06100
H1434       H  0.56619517  0.08411940  0.66716278    -0.06200
C1435       C  0.56512813  0.49864229  0.80957575     0.87300
C1436       C  0.00235945  0.43358924  0.69072033     0.87900
C1437       C  0.56643978  0.06534612  0.69152640     0.87900
H1438       H  0.97881862  0.06328661  0.83364952    -0.06200
O1439       O  0.92423581  0.46072654  0.81391619    -0.75200
Mg1440     Mg  0.59309203  0.08284092  0.77622786     1.58000
H1441       H  0.93343031  0.41210377  0.83225252    -0.06200
C1442       C  0.58025506  0.40319973  0.76915151     0.92900
O1443       O  0.65534947  0.03790837  0.72570923    -0.82500
C1444       C  0.67516205  0.07806433  0.73290488     0.93000
O1445       O  0.88677351  0.34308533  0.72280578    -0.82500
Mg1446     Mg  0.91493518  0.00733233  0.77523777     1.58200
O1447       O  0.59941240  0.44168726  0.75623078    -0.80800
O1448       O  0.95984845  0.11468903  0.72595158    -0.82500
C1449       C  0.67786046  0.30738881  0.91786508    -0.20000
C1450       C  0.67183108  0.33867002  0.93722952    -0.06600
C1451       C  0.67888307  0.37501778  0.91487587     0.14300
C1452       C  0.67515803  0.37101336  0.87452861    -0.20100
C1453       C  0.67195598  0.33482335  0.85527434    -0.06600
C1454       C  0.68152406  0.30726959  0.87745487     0.14300
C1455       C  0.70091772  0.28162953  0.86089490    -0.23400
H1456       H  0.68327444  0.28491972  0.93447565     0.15600
H1457       H  0.67873928  0.39822516  0.85786206     0.15600
C1458       C  0.69653210  0.41996029  0.93098620    -0.23400
H1459       H  0.73190636  0.29154875  0.87546455     0.05800
H1460       H  0.70852593  0.28731468  0.82968580     0.09000
H1461       H  0.67935370  0.24667666  0.86635478     0.09000
H1462       H  0.70517266  0.42248697  0.96187700     0.09000
H1463       H  0.67344861  0.43159989  0.92646322     0.09000
H1464       H  0.72673092  0.44217375  0.91536788     0.05800
C1465       C  0.69552142  0.37074898  0.66753334    -0.20000
C1466       C  0.66431718  0.33399204  0.68740869    -0.06600
C1467       C  0.62775396  0.30480364  0.66569386     0.14300
C1468       C  0.63057397  0.30554028  0.62519151    -0.20100
C1469       C  0.66686364  0.33723362  0.60525117    -0.06600
C1470       C  0.69601883  0.37383402  0.62709151     0.14300
C1471       C  0.72518183  0.41793093  0.60999832    -0.23400
H1472       H  0.71794111  0.39891097  0.68364311     0.15600
H1473       H  0.60247721  0.28314053  0.60919444     0.15600
C1474       C  0.58388209  0.27567811  0.68300218    -0.23400
H1475       H  0.71811361  0.44174617  0.62398985     0.05800
H1476       H  0.72078873  0.42008827  0.57867340     0.09000
H1477       H  0.75921295  0.42780107  0.61568162     0.09000
H1478       H  0.58205825  0.27976690  0.71450498     0.09000
H1479       H  0.57355257  0.24143704  0.67655323     0.09000
H1480       H  0.56040469  0.28337141  0.66978807     0.05800
C1481       C  0.82345863  0.19470207  0.83279704    -0.20000
C1482       C  0.82788247  0.16271490  0.81285744    -0.06600
C1483       C  0.82007391  0.12580500  0.83467659     0.14300
C1484       C  0.82228730  0.12863369  0.87510083    -0.20100
C1485       C  0.82794402  0.16550681  0.89493549    -0.06600
C1486       C  0.82130951  0.19538126  0.87328256     0.14300
C1487       C  0.80781867  0.22562160  0.89074029    -0.23400
H1488       H  0.81827107  0.21763544  0.81682705     0.15600
H1489       H  0.81633606  0.10026541  0.89118135     0.15600
C1490       C  0.80545029  0.08174138  0.81755151    -0.23400
H1491       H  0.77693393  0.21898696  0.87777860     0.05800
H1492       H  0.83222891  0.25957457  0.88414097     0.09000
H1493       H  0.80220215  0.22174957  0.92229502     0.09000
H1494       H  0.82906470  0.07124919  0.82410838     0.09000
H1495       H  0.80022710  0.08004361  0.78602321     0.09000
H1496       H  0.77416875  0.05815301  0.83080388     0.05800
C1497       C  0.80467019  0.17487013  0.58332229    -0.20000
C1498       C  0.83609755  0.17022041  0.56281039    -0.06600
C1499       C  0.87266262  0.17716471  0.58417163     0.14300
C1500       C  0.86982236  0.17407574  0.62463671    -0.20100
C1501       C  0.83350448  0.16893955  0.64499110    -0.06600
C1502       C  0.80413256  0.17650459  0.62380413     0.14300
C1503       C  0.77457491  0.19058197  0.64169232    -0.23400
H1504       H  0.78211686  0.18076692  0.56777289     0.15600
H1505       H  0.89794559  0.17946777  0.64032168     0.15600
C1506       C  0.91648682  0.19222817  0.56657836    -0.23400
H1507       H  0.78165941  0.22189602  0.62878339     0.05800
H1508       H  0.77841623  0.19596605  0.67321022     0.09000
H1509       H  0.74066421  0.16648079  0.63537664     0.09000
H1510       H  0.91812563  0.19829386  0.53514036     0.09000
H1511       H  0.92693837  0.16834810  0.57247242     0.09000
H1512       H  0.93996665  0.22333345  0.58004886     0.05800
C1513       C  0.83348671  0.66692768  0.01852021     0.30300
C1514       C  0.83196395  0.66692962  0.43902953     0.30300
C1515       C  0.85059218  0.64008456  0.99830126    -0.05900
C1516       C  0.78890746  0.64775034  0.99988364    -0.06700
C1517       C  0.85860488  0.71089000  0.99867590    -0.06600
C1518       C  0.85110550  0.64083785  0.45785239    -0.05900
C1519       C  0.78824540  0.64865014  0.45963028    -0.06700
C1520       C  0.85931749  0.71130586  0.45841130    -0.06600
C1521       C  0.87226524  0.61912064  0.44603737    -0.32000
N1522       N  0.88228403  0.60405408  0.47790804     0.14500
C1523       C  0.86858696  0.61588380  0.00973638    -0.32000
H1524       H  0.87237875  0.60802963  0.03909241     0.16500
C1525       C  0.74577171  0.62890929  0.44850171    -0.30900
N1526       N  0.72107202  0.61481172  0.98088537     0.13300
C1527       C  0.74678816  0.62497845  0.01210479    -0.30900
C1528       C  0.88495837  0.75399069  0.44732656    -0.31200
N1529       N  0.89724114  0.77865278  0.97972769     0.13800
H1530       H  0.89310141  0.76639366  0.41813919     0.16400
C1531       C  0.88150317  0.75275199  0.01111786    -0.31200
H1532       H  0.88623192  0.76372974  0.04083488     0.16400
H1533       H  0.73519369  0.61571555  0.04145667     0.16400
H1534       H  0.88118458  0.61571811  0.41683329     0.16500
H1535       H  0.73376091  0.62400297  0.41924033     0.16400
C1536       C  0.83232821  0.66522096  0.18912698     0.30300
C1537       C  0.83174335  0.66491901  0.26860593     0.30300
C1538       C  0.85841191  0.64647655  0.20865959    -0.05900
C1539       C  0.85036605  0.70945434  0.20878606    -0.06700
C1540       C  0.78805967  0.63795409  0.20880912    -0.06600
C1541       C  0.85875299  0.64755813  0.24912762    -0.05900
C1542       C  0.85081946  0.70939263  0.24905387    -0.06700
C1543       C  0.78821520  0.63937574  0.24901055    -0.06600
C1544       C  0.88340888  0.63042162  0.26139272    -0.32000
N1545       N  0.89627050  0.61693770  0.23007640     0.14500
C1546       C  0.88111307  0.62600865  0.19773139    -0.32000
H1547       H  0.88520341  0.61693649  0.16881100     0.16500
C1548       C  0.87380048  0.75184824  0.26039621    -0.30900
N1549       N  0.88464670  0.77723483  0.22859975     0.13300
C1550       C  0.87074971  0.75197699  0.19670545    -0.30900
C1551       C  0.74648399  0.61729182  0.26169564    -0.31200
N1552       N  0.72085045  0.60129820  0.23049853     0.13800
H1553       H  0.73542390  0.61332394  0.29142634     0.16400
C1554       C  0.74556834  0.61257823  0.19801603    -0.31200
H1555       H  0.73335147  0.60413446  0.16892304     0.16400
H1556       H  0.87638527  0.76361217  0.16717560     0.16400
H1557       H  0.89091754  0.62713174  0.29098083     0.16500
H1558       H  0.88299761  0.76389662  0.28953307     0.16400
C1559       C  0.66806700  0.83540852  0.06102876     0.30300
C1560       C  0.66831468  0.83661219  0.48152196     0.30300
C1561       C  0.64826563  0.86020089  0.04205353    -0.05900
C1562       C  0.71243657  0.85420463  0.04108982    -0.06700
C1563       C  0.64344894  0.79056184  0.04097570    -0.06600
C1564       C  0.64706314  0.85941332  0.50183717    -0.05900
C1565       C  0.71205928  0.85584917  0.50089851    -0.06700
C1566       C  0.64345744  0.79162745  0.50046363    -0.06600
C1567       C  0.62350196  0.87817075  0.49096626    -0.32000
N1568       N  0.61352004  0.89332163  0.02296054     0.14500
C1569       C  0.62807401  0.88241690  0.05459259    -0.32000
H1570       H  0.62349867  0.88925594  0.08420928     0.16500
C1571       C  0.75366853  0.87497132  0.48797870    -0.30900
N1572       N  0.77946279  0.88404740  0.01897807     0.13300
C1573       C  0.75493402  0.87072630  0.05158719    -0.32100
C1574       C  0.61958782  0.74973674  0.48778823    -0.31200
N1575       N  0.60612947  0.72322121  0.01890483     0.13800
H1576       H  0.61223330  0.73897017  0.45812330     0.16400
C1577       C  0.62073886  0.74730245  0.05149584    -0.31200
H1578       H  0.61581674  0.73397704  0.08035262     0.16400
H1579       H  0.76723379  0.87362400  0.08054530     0.16400
H1580       H  0.61412678  0.88080059  0.46190209     0.16500
H1581       H  0.76451801  0.88165094  0.45817956     0.16400
C1582       C  0.66681523  0.83252894  0.23166899     0.30300
C1583       C  0.66816298  0.83280433  0.31117320     0.30300
C1584       C  0.64276008  0.85225357  0.25200674    -0.05900
C1585       C  0.64846014  0.78817824  0.25125344    -0.06700
C1586       C  0.71142569  0.85678166  0.25044337    -0.06600
C1587       C  0.64241773  0.85202026  0.29230235    -0.05900
C1588       C  0.64735074  0.78787489  0.29166567    -0.06700
C1589       C  0.71203607  0.85770735  0.29073578    -0.06600
C1590       C  0.61714017  0.86950588  0.30370716    -0.32000
N1591       N  0.60414780  0.88122259  0.27143144     0.14500
C1592       C  0.61961093  0.87091371  0.23988163    -0.32000
H1593       H  0.61417018  0.87649642  0.21022605     0.16500
C1594       C  0.62599435  0.74496439  0.30296121    -0.30900
N1595       N  0.61685081  0.72022313  0.27080237     0.13300
C1596       C  0.63084883  0.74610080  0.23928918    -0.30900
C1597       C  0.75449151  0.88072740  0.30192034    -0.31200
N1598       N  0.77921436  0.89227307  0.26949134     0.13800
H1599       H  0.76647277  0.88761178  0.33120833     0.16400
C1600       C  0.75354551  0.87708871  0.23818636    -0.31200
H1601       H  0.76518095  0.88051428  0.20871903     0.16400
H1602       H  0.62788139  0.73481166  0.20980532     0.16400
H1603       H  0.60912481  0.87391193  0.33295915     0.16500
H1604       H  0.61708525  0.73254272  0.33208054     0.16400
O1605       O  0.94418330  0.51866762  0.02475188    -0.88100
C1606       C  0.93585380  0.93514291  0.43983400     0.88000
Mg1607     Mg  0.99113545  0.58632051  0.02337734     1.58100
O1608       O  0.98193601  0.92694461  0.02670872    -0.87800
O1609       O  0.92440515  0.96327567  0.06305111    -0.75100
C1610       C  0.67538293  0.59334044  0.48343457     0.93000
O1611       O  0.96415728  0.53760641  0.43363730    -0.74900
O1612       O  0.65622852  0.61415630  0.47533928    -0.82400
Mg1613     Mg  0.90759422  0.99155729  0.47240856     1.58000
C1614       C  0.59204415  0.91768847  0.02132398     0.92900
O1615       O  0.84460390  0.94411972  0.00308415    -0.80700
H1616       H  0.97719440  0.91514550  0.08353379    -0.06100
C1617       C  0.56706066  0.49892590  0.44224174     0.87900
O1618       O  0.53598818  0.57647184  0.06358279    -0.75200
O1619       O  0.92773188  0.94438786  0.47207033    -0.88000
O1620       O  0.55422389  0.89913231  0.00783994    -0.80800
C1621       C  0.92048648  0.82458275  0.48195297     0.93100
C1622       C  0.82513147  0.90568486  0.01623134     0.92900
Mg1623     Mg  0.59238184  0.50876574  0.02764584     1.58000
O1624       O  0.65576920  0.55528647  0.49737186    -0.80700
O1625       O  0.53542439  0.96338644  0.06597158    -0.75000
O1626       O  0.90091561  0.84367011  0.49465472    -0.80800
O1627       O  0.88570111  0.54098013  0.47299476    -0.82500
O1628       O  0.60108226  0.65736272  0.00458762    -0.80800
C1629       C  0.49729734  0.93376613  0.05950506     0.87300
O1630       O  0.57287938  0.55656714  0.02694275    -0.88000
O1631       O  0.55655860  0.98258843  0.47475541    -0.88100
O1632       O  0.57594361  0.53742669  0.43587247    -0.75100
Mg1633     Mg  0.91533817  0.90678027  0.02477045     1.58000
O1634       O  0.96053625  0.84449821  0.47490520    -0.82500
H1635       H  0.93397088  0.52138293  0.08134423    -0.06200
O1636       O  0.51854028  0.57443551  0.47198785    -0.87800
H1637       H  0.52212173  0.58556283  0.41507536    -0.06100
H1638       H  0.58311527  0.56636516  0.08375031    -0.06200
C1639       C  0.00252359  0.56719067  0.43943488     0.87300
C1640       C  0.93377879  0.00203459  0.05716324     0.87900
C1641       C  0.56529950  0.56689260  0.05890801     0.87900
H1642       H  0.56697880  0.97935056  0.41829929    -0.06200
O1643       O  0.96558096  0.92624696  0.43480720    -0.75200
Mg1644     Mg  0.58546771  0.59388602  0.47408177     1.58000
H1645       H  0.91826173  0.93624607  0.41505390    -0.06200
C1646       C  0.90554326  0.58134835  0.47944239     0.92900
O1647       O  0.54145990  0.65800582  0.02215798    -0.82500
C1648       C  0.58186300  0.67722241  0.01624576     0.93000
O1649       O  0.84446421  0.88492920  0.02356035    -0.82500
Mg1650     Mg  0.50960915  0.91560365  0.47515038     1.58200
O1651       O  0.94424724  0.60156497  0.49119603    -0.80800
O1652       O  0.61287672  0.95794430  0.02850374    -0.82500
O1653       O  0.51799232  0.94245376  0.22341795    -0.88100
C1654       C  0.93334955  0.93115455  0.30805161     0.88000
Mg1655     Mg  0.58464262  0.98909875  0.22492608     1.58100
O1656       O  0.92723156  0.98162151  0.22276842    -0.87800
O1657       O  0.96424817  0.92517667  0.18445301    -0.75100
C1658       C  0.59448401  0.67426600  0.26875142     0.93000
O1659       O  0.53550173  0.96003628  0.31500942    -0.74900
O1660       O  0.61485924  0.65430425  0.27516548    -0.82400
Mg1661     Mg  0.99069365  0.90441022  0.27548005     1.58000
C1662       C  0.91959731  0.59429245  0.23243605     0.92900
O1663       O  0.94481581  0.84214441  0.24388173    -0.80700
H1664       H  0.91654519  0.97993749  0.16597519    -0.06100
C1665       C  0.49824515  0.56402319  0.30928552     0.87900
O1666       O  0.57553480  0.53570382  0.18591179    -0.75200
O1667       O  0.94388865  0.92478290  0.27569288    -0.88000
O1668       O  0.89986297  0.55538311  0.24450614    -0.80800
C1669       C  0.82490183  0.91665407  0.26693707     0.93100
C1670       C  0.90693392  0.82316916  0.23037803     0.92900
Mg1671     Mg  0.50939027  0.59284192  0.22499764     1.58000
O1672       O  0.55592240  0.65522703  0.25676128    -0.80700
O1673       O  0.96416808  0.53750886  0.18533115    -0.75000
O1674       O  0.84458956  0.89793744  0.25369648    -0.80800
O1675       O  0.54008977  0.88252053  0.27586044    -0.82500
O1676       O  0.65614206  0.59770278  0.24570277    -0.80800
C1677       C  0.93465147  0.49880378  0.19055746     0.87300
O1678       O  0.55627676  0.57219254  0.22387700    -0.88000
O1679       O  0.98200624  0.55454704  0.27684376    -0.88100
O1680       O  0.53666880  0.57302302  0.31497470    -0.75100
Mg1681     Mg  0.90764164  0.91433027  0.22297800     1.58000
O1682       O  0.84396277  0.95691586  0.27415875    -0.82500
H1683       H  0.52223344  0.93473030  0.16658048    -0.06200
O1684       O  0.57278488  0.51548257  0.27720356    -0.87800
H1685       H  0.58308514  0.51775385  0.33410985    -0.06100
H1686       H  0.56619501  0.58411933  0.16716277    -0.06200
C1687       C  0.56512804  0.99864219  0.30957572     0.87300
C1688       C  0.00235944  0.93358915  0.19072036     0.87900
C1689       C  0.56643978  0.56534611  0.19152636     0.87900
H1690       H  0.97881883  0.56328656  0.33364965    -0.06200
O1691       O  0.92423588  0.96072658  0.31391615    -0.75200
Mg1692     Mg  0.59309212  0.58284097  0.27622778     1.58000
H1693       H  0.93343003  0.91210364  0.33225255    -0.06200
C1694       C  0.58025509  0.90319958  0.26915156     0.92900
O1695       O  0.65534941  0.53790836  0.22570931    -0.82500
C1696       C  0.67516202  0.57806434  0.23290480     0.93000
O1697       O  0.88677336  0.84308521  0.22280566    -0.82500
Mg1698     Mg  0.91493519  0.50733224  0.27523790     1.58200
O1699       O  0.59941246  0.94168717  0.25623091    -0.80800
O1700       O  0.95984841  0.61468891  0.22595154    -0.82500
C1701       C  0.67786059  0.80738886  0.41786510    -0.20000
C1702       C  0.67183116  0.83867005  0.43722953    -0.06600
C1703       C  0.67888296  0.87501771  0.41487585     0.14300
C1704       C  0.67515800  0.87101330  0.37452859    -0.20100
C1705       C  0.67195591  0.83482325  0.35527435    -0.06600
C1706       C  0.68152403  0.80726952  0.37745488     0.14300
C1707       C  0.70091780  0.78162960  0.36089484    -0.23400
H1708       H  0.68327466  0.78491986  0.43447568     0.15600
H1709       H  0.67873936  0.89822514  0.35786200     0.15600
C1710       C  0.69653193  0.91996020  0.43098611    -0.23400
H1711       H  0.73190646  0.79154893  0.37546447     0.05800
H1712       H  0.70852602  0.78731484  0.32968575     0.09000
H1713       H  0.67935388  0.74667669  0.36635465     0.09000
H1714       H  0.70517265  0.92248693  0.46187687     0.09000
H1715       H  0.67344834  0.93159970  0.42646322     0.09000
H1716       H  0.72673066  0.94217367  0.41536769     0.05800
C1717       C  0.69552139  0.87074889  0.16753331    -0.20000
C1718       C  0.66431711  0.83399200  0.18740867    -0.06600
C1719       C  0.62775387  0.80480365  0.16569382     0.14300
C1720       C  0.63057386  0.80554028  0.12519147    -0.20100
C1721       C  0.66686350  0.83723363  0.10525114    -0.06600
C1722       C  0.69601873  0.87383397  0.12709150     0.14300
C1723       C  0.72518172  0.91793086  0.10999837    -0.23400
H1724       H  0.71794117  0.89891085  0.18364305     0.15600
H1725       H  0.60247712  0.78314047  0.10919439     0.15600
C1726       C  0.58388207  0.77567796  0.18300211    -0.23400
H1727       H  0.71811359  0.94174611  0.12399005     0.05800
H1728       H  0.72078850  0.92008829  0.07867349     0.09000
H1729       H  0.75921282  0.92780087  0.11568157     0.09000
H1730       H  0.58205820  0.77976668  0.21450492     0.09000
H1731       H  0.57355275  0.74143695  0.17655308     0.09000
H1732       H  0.56040454  0.78337111  0.16978805     0.05800
C1733       C  0.82345866  0.69470206  0.33279706    -0.20000
C1734       C  0.82788247  0.66271488  0.31285746    -0.06600
C1735       C  0.82007389  0.62580499  0.33467660     0.14300
C1736       C  0.82228738  0.62863372  0.37510084    -0.20100
C1737       C  0.82794415  0.66550687  0.39493550    -0.06600
C1738       C  0.82130960  0.69538128  0.37328259     0.14300
C1739       C  0.80781860  0.72562149  0.39074036    -0.23400
H1740       H  0.81827099  0.71763534  0.31682708     0.15600
H1741       H  0.81633615  0.60026543  0.39118139     0.15600
C1742       C  0.80545016  0.58174138  0.31755148    -0.23400
H1743       H  0.77693369  0.71898654  0.37777884     0.05800
H1744       H  0.83222861  0.75957451  0.38414094     0.09000
H1745       H  0.80220223  0.72174958  0.42229511     0.09000
H1746       H  0.82906456  0.57124918  0.32410831     0.09000
H1747       H  0.80022699  0.58004365  0.28602318     0.09000
H1748       H  0.77416858  0.55815308  0.33080383     0.05800
C1749       C  0.80467019  0.67487011  0.08332230    -0.20000
C1750       C  0.83609758  0.67022046  0.06281037    -0.06600
C1751       C  0.87266263  0.67716471  0.08417162     0.14300
C1752       C  0.86982236  0.67407573  0.12463670    -0.20100
C1753       C  0.83350449  0.66893954  0.14499110    -0.06600
C1754       C  0.80413255  0.67650458  0.12380414     0.14300
C1755       C  0.77457478  0.69058182  0.14169238    -0.23400
H1756       H  0.78211681  0.68076687  0.06777291     0.15600
H1757       H  0.89794562  0.67946781  0.14032168     0.15600
C1758       C  0.91648687  0.69222830  0.06657838    -0.23400
H1759       H  0.78165909  0.72189583  0.12878349     0.05800
H1760       H  0.77841611  0.69596591  0.17321029     0.09000
H1761       H  0.74066409  0.66648059  0.13537671     0.09000
H1762       H  0.91812575  0.69829419  0.03514040     0.09000
H1763       H  0.92693850  0.66834827  0.07247234     0.09000
H1764       H  0.93996660  0.72333356  0.08004900     0.05800
C1765       C  0.83348670  0.66692765  0.51852023     0.30300
C1766       C  0.83196389  0.66692955  0.93902951     0.30300
C1767       C  0.85059210  0.64008446  0.49830127    -0.05900
C1768       C  0.78890746  0.64775040  0.49988363    -0.06700
C1769       C  0.85860500  0.71088998  0.49867598    -0.06600
C1770       C  0.85110553  0.64083790  0.95785238    -0.05900
C1771       C  0.78824537  0.64865001  0.95963029    -0.06700
C1772       C  0.85931736  0.71130586  0.95841124    -0.06600
C1773       C  0.87226536  0.61912080  0.94603738    -0.32000
N1774       N  0.88228423  0.60405432  0.97790805     0.14500
C1775       C  0.86858677  0.61588360  0.50973638    -0.32000
H1776       H  0.87237854  0.60802946  0.53909241     0.16500
C1777       C  0.74577170  0.62890916  0.94850174    -0.30900
N1778       N  0.72107199  0.61481175  0.48088533     0.13300
C1779       C  0.74678815  0.62497842  0.51210474    -0.30900
C1780       C  0.88495821  0.75399071  0.94732649    -0.31200
N1781       N  0.89724126  0.77865275  0.47972776     0.13800
H1782       H  0.89310127  0.76639366  0.91813907     0.16400
C1783       C  0.88150331  0.75275199  0.51111794    -0.31200
H1784       H  0.88623208  0.76372982  0.54083496     0.16400
H1785       H  0.73519368  0.61571544  0.54145663     0.16400
H1786       H  0.88118475  0.61571833  0.91683327     0.16500
H1787       H  0.73376089  0.62400281  0.91924041     0.16400
C1788       C  0.83232821  0.66522103  0.68912698     0.30300
C1789       C  0.83174341  0.66491911  0.76860592     0.30300
C1790       C  0.85841198  0.64647667  0.70865958    -0.05900
C1791       C  0.85036598  0.70945444  0.70878602    -0.06700
C1792       C  0.78805969  0.63795418  0.70880914    -0.06600
C1793       C  0.85875311  0.64755829  0.74912760    -0.05900
C1794       C  0.85081935  0.70939272  0.74905384    -0.06700
C1795       C  0.78821525  0.63937582  0.74901058    -0.06600
C1796       C  0.88340890  0.63042168  0.76139269    -0.32000
N1797       N  0.89627051  0.61693774  0.73007638     0.14500
C1798       C  0.88111306  0.62600867  0.69773138    -0.32000
H1799       H  0.88520327  0.61693631  0.66881100     0.16500
C1800       C  0.87380041  0.75184833  0.76039617    -0.30900
N1801       N  0.88464679  0.77723494  0.72859973     0.13300
C1802       C  0.87074981  0.75197711  0.69670543    -0.30900
C1803       C  0.74648403  0.61729195  0.76169568    -0.31200
N1804       N  0.72085047  0.60129833  0.73049857     0.13800
H1805       H  0.73542393  0.61332405  0.79142638     0.16400
C1806       C  0.74556833  0.61257836  0.69801605    -0.31200
H1807       H  0.73335143  0.60413453  0.66892310     0.16400
H1808       H  0.87638551  0.76361233  0.66717559     0.16400
H1809       H  0.89091746  0.62713165  0.79098083     0.16500
H1810       H  0.88299756  0.76389670  0.78953302     0.16400
C1811       C  0.66806706  0.83540850  0.56102878     0.30300
C1812       C  0.66831464  0.83661218  0.98152193     0.30300
C1813       C  0.64826570  0.86020091  0.54205362    -0.05900
C1814       C  0.71243664  0.85420461  0.54108981    -0.06700
C1815       C  0.64344897  0.79056181  0.54097573    -0.06600
C1816       C  0.64706302  0.85941323  0.00183708    -0.05900
C1817       C  0.71205922  0.85584920  0.00089854    -0.06700
C1818       C  0.64345739  0.79162746  0.00046359    -0.06600
C1819       C  0.62350187  0.87817069  0.99096614    -0.32000
N1820       N  0.61352009  0.89332165  0.52296064     0.14500
C1821       C  0.62807404  0.88241691  0.55459270    -0.32000
H1822       H  0.62349863  0.88925593  0.58420937     0.16500
C1823       C  0.75366846  0.87497135  0.98797876    -0.30900
N1824       N  0.77946286  0.88404739  0.51897802     0.13300
C1825       C  0.75493411  0.87072637  0.55158714    -0.32100
C1826       C  0.61958771  0.74973679  0.98778820    -0.31200
N1827       N  0.60612958  0.72322116  0.51890489     0.13800
H1828       H  0.61223318  0.73897024  0.95812321     0.16400
C1829       C  0.62073892  0.74730242  0.55149587    -0.31200
H1830       H  0.61581679  0.73397703  0.58035270     0.16400
H1831       H  0.76723394  0.87362426  0.58054525     0.16400
H1832       H  0.61412676  0.88080058  0.96190198     0.16500
H1833       H  0.76451793  0.88165094  0.95817963     0.16400
C1834       C  0.66681525  0.83252901  0.73166900     0.30300
C1835       C  0.66816300  0.83280444  0.81117321     0.30300
C1836       C  0.64276009  0.85225367  0.75200675    -0.05900
C1837       C  0.64846021  0.78817830  0.75125345    -0.06700
C1838       C  0.71142572  0.85678173  0.75044338    -0.06600
C1839       C  0.64241772  0.85202036  0.79230237    -0.05900
C1840       C  0.64735082  0.78787499  0.79166567    -0.06700
C1841       C  0.71203610  0.85770748  0.79073579    -0.06600
C1842       C  0.61714015  0.86950601  0.80370715    -0.32000
N1843       N  0.60414787  0.88122277  0.77143143     0.14500
C1844       C  0.61961102  0.87091388  0.73988161    -0.32000
H1845       H  0.61417032  0.87649662  0.71022610     0.16500
C1846       C  0.62599444  0.74496449  0.80296121    -0.30900
N1847       N  0.61685091  0.72022318  0.77080239     0.13300
C1848       C  0.63084890  0.74610082  0.73928919    -0.30900
C1849       C  0.75449156  0.88072748  0.80192034    -0.31200
N1850       N  0.77921442  0.89227304  0.76949132     0.13800
H1851       H  0.76647286  0.88761189  0.83120831     0.16400
C1852       C  0.75354554  0.87708863  0.73818638    -0.31200
H1853       H  0.76518094  0.88051409  0.70871899     0.16400
H1854       H  0.62788139  0.73481163  0.70980534     0.16400
H1855       H  0.60912472  0.87391211  0.83295917     0.16500
H1856       H  0.61708526  0.73254287  0.83208049     0.16400
O1857       O  0.94418337  0.51866767  0.52475185    -0.88100
C1858       C  0.93585391  0.93514301  0.93983396     0.88000
Mg1859     Mg  0.99113542  0.58632049  0.52337737     1.58100
O1860       O  0.98193606  0.92694452  0.52670881    -0.87800
O1861       O  0.92440521  0.96327568  0.56305100    -0.75100
C1862       C  0.67538299  0.59334042  0.98343462     0.93000
O1863       O  0.96415733  0.53760645  0.93363741    -0.74900
O1864       O  0.65622860  0.61415630  0.97533933    -0.82400
Mg1865     Mg  0.90759422  0.99155728  0.97240858     1.58000
C1866       C  0.59204422  0.91768851  0.52132406     0.92900
O1867       O  0.84460400  0.94411975  0.50308429    -0.80700
H1868       H  0.97719450  0.91514545  0.58353394    -0.06100
C1869       C  0.56706083  0.49892608  0.94224169     0.87900
O1870       O  0.53598820  0.57647182  0.56358294    -0.75200
O1871       O  0.92773189  0.94438784  0.97207033    -0.88000
O1872       O  0.55422398  0.89913238  0.50783994    -0.80800
C1873       C  0.92048642  0.82458279  0.98195300     0.93100
C1874       C  0.82513155  0.90568485  0.51623137     0.92900
Mg1875     Mg  0.59238174  0.50876570  0.52764585     1.58000
O1876       O  0.65576929  0.55528648  0.99737195    -0.80700
O1877       O  0.53542439  0.96338632  0.56597165    -0.75000
O1878       O  0.90091560  0.84367018  0.99465475    -0.80800
O1879       O  0.88570115  0.54098027  0.97299489    -0.82500
O1880       O  0.60108210  0.65736260  0.50458749    -0.80800
C1881       C  0.49729735  0.93376599  0.55950510     0.87300
O1882       O  0.57287922  0.55656706  0.52694271    -0.88000
O1883       O  0.55655864  0.98258846  0.97475533    -0.88100
O1884       O  0.57594378  0.53742688  0.93587243    -0.75100
Mg1885     Mg  0.91533820  0.90678022  0.52477042     1.58000
O1886       O  0.96053620  0.84449820  0.97490529    -0.82500
H1887       H  0.93397098  0.52138294  0.58134423    -0.06200
O1888       O  0.51854043  0.57443567  0.97198785    -0.87800
H1889       H  0.52212174  0.58556269  0.91507533    -0.06100
H1890       H  0.58311556  0.56636533  0.58375019    -0.06200
C1891       C  0.00252365  0.56719070  0.93943490     0.87300
C1892       C  0.93377890  0.00203461  0.55716318     0.87900
C1893       C  0.56529955  0.56689263  0.55890800     0.87900
H1894       H  0.56697875  0.97935069  0.91829918    -0.06200
O1895       O  0.96558112  0.92624712  0.93480714    -0.75200
Mg1896     Mg  0.58546785  0.59388614  0.97408183     1.58000
H1897       H  0.91826199  0.93624630  0.91505387    -0.06200
C1898       C  0.90554336  0.58134851  0.97944244     0.92900
O1899       O  0.54145989  0.65800583  0.52215806    -0.82500
C1900       C  0.58186299  0.67722236  0.51624578     0.93000
O1901       O  0.84446426  0.88492916  0.52356037    -0.82500
Mg1902     Mg  0.50960912  0.91560366  0.97515037     1.58200
O1903       O  0.94424733  0.60156509  0.99119609    -0.80800
O1904       O  0.61287680  0.95794433  0.52850386    -0.82500
O1905       O  0.51799240  0.94245376  0.72341788    -0.88100
C1906       C  0.93334970  0.93115466  0.80805160     0.88000
Mg1907     Mg  0.58464265  0.98909883  0.72492608     1.58100
O1908       O  0.92723163  0.98162156  0.72276828    -0.87800
O1909       O  0.96424823  0.92517663  0.68445301    -0.75100
C1910       C  0.59448395  0.67426603  0.76875146     0.93000
O1911       O  0.53550187  0.96003645  0.81500955    -0.74900
O1912       O  0.61485905  0.65430416  0.77516563    -0.82400
Mg1913     Mg  0.99069373  0.90441041  0.77548007     1.58000
C1914       C  0.91959723  0.59429241  0.73243601     0.92900
O1915       O  0.94481599  0.84214454  0.74388165    -0.80700
H1916       H  0.91654525  0.97993751  0.66597506    -0.06100
C1917       C  0.49824504  0.56402310  0.80928552     0.87900
O1918       O  0.57553464  0.53570373  0.68591183    -0.75200
O1919       O  0.94388881  0.92478312  0.77569285    -0.88000
O1920       O  0.89986278  0.55538302  0.74450594    -0.80800
C1921       C  0.82490190  0.91665406  0.76693703     0.93100
C1922       C  0.90693405  0.82316928  0.73037805     0.92900
Mg1923     Mg  0.50939019  0.59284198  0.72499759     1.58000
O1924       O  0.55592238  0.65522717  0.75676117    -0.80700
O1925       O  0.96416819  0.53750889  0.68533101    -0.75000
O1926       O  0.84458965  0.89793741  0.75369655    -0.80800
O1927       O  0.54008990  0.88252078  0.77586054    -0.82500
O1928       O  0.65614204  0.59770271  0.74570294    -0.80800
C1929       C  0.93465155  0.49880380  0.69055731     0.87300
O1930       O  0.55627676  0.57219262  0.72387702    -0.88000
O1931       O  0.98200628  0.55454705  0.77684363    -0.88100
O1932       O  0.53666866  0.57302288  0.81497475    -0.75100
Mg1933     Mg  0.90764172  0.91433031  0.72297799     1.58000
O1934       O  0.84396283  0.95691588  0.77415856    -0.82500
H1935       H  0.52223343  0.93473054  0.66658027    -0.06200
O1936       O  0.57278493  0.51548260  0.77720358    -0.87800
H1937       H  0.58308534  0.51775402  0.83410985    -0.06100
H1938       H  0.56619535  0.58411952  0.66716283    -0.06200
C1939       C  0.56512816  0.99864235  0.80957577     0.87300
C1940       C  0.00235955  0.93358928  0.69072033     0.87900
C1941       C  0.56643984  0.56534617  0.69152641     0.87900
H1942       H  0.97881870  0.56328672  0.83364947    -0.06200
O1943       O  0.92423594  0.96072662  0.81391621    -0.75200
Mg1944     Mg  0.59309207  0.58284094  0.77622786     1.58000
H1945       H  0.93343027  0.91210371  0.83225248    -0.06200
C1946       C  0.58025519  0.90319978  0.76915151     0.92900
O1947       O  0.65534944  0.53790839  0.72570923    -0.82500
C1948       C  0.67516203  0.57806436  0.73290485     0.93000
O1949       O  0.88677347  0.84308532  0.72280578    -0.82500
Mg1950     Mg  0.91493514  0.50733226  0.77523777     1.58200
O1951       O  0.59941254  0.94168732  0.75623077    -0.80800
O1952       O  0.95984836  0.61468883  0.72595159    -0.82500
C1953       C  0.67786059  0.80738888  0.91786509    -0.20000
C1954       C  0.67183118  0.83867007  0.93722952    -0.06600
C1955       C  0.67888311  0.87501781  0.91487587     0.14300
C1956       C  0.67515816  0.87101342  0.87452860    -0.20100
C1957       C  0.67195600  0.83482336  0.85527435    -0.06600
C1958       C  0.68152406  0.80726959  0.87745487     0.14300
C1959       C  0.70091767  0.78162950  0.86089488    -0.23400
H1960       H  0.68327456  0.78491981  0.93447566     0.15600
H1961       H  0.67873949  0.89822525  0.85786204     0.15600
C1962       C  0.69653205  0.91996030  0.93098620    -0.23400
H1963       H  0.73190628  0.79154869  0.87546455     0.05800
H1964       H  0.70852593  0.78731471  0.82968579     0.09000
H1965       H  0.67935358  0.74667664  0.86635471     0.09000
H1966       H  0.70517261  0.92248701  0.96187700     0.09000
H1967       H  0.67344852  0.93159986  0.92646320     0.09000
H1968       H  0.72673086  0.94217380  0.91536790     0.05800
C1969       C  0.69552143  0.87074889  0.66753332    -0.20000
C1970       C  0.66431716  0.83399201  0.68740869    -0.06600
C1971       C  0.62775394  0.80480358  0.66569387     0.14300
C1972       C  0.63057393  0.80554020  0.62519152    -0.20100
C1973       C  0.66686357  0.83723357  0.60525116    -0.06600
C1974       C  0.69601879  0.87383396  0.62709150     0.14300
C1975       C  0.72518176  0.91793088  0.60999833    -0.23400
H1976       H  0.71794121  0.89891086  0.68364309     0.15600
H1977       H  0.60247716  0.78314038  0.60919446     0.15600
C1978       C  0.58388212  0.77567791  0.68300220    -0.23400
H1979       H  0.71811354  0.94174610  0.62398993     0.05800
H1980       H  0.72078861  0.92008826  0.57867343     0.09000
H1981       H  0.75921288  0.92780100  0.61568157     0.09000
H1982       H  0.58205826  0.77976665  0.71450501     0.09000
H1983       H  0.57355274  0.74143688  0.67655321     0.09000
H1984       H  0.56040458  0.78337105  0.66978814     0.05800
C1985       C  0.82345877  0.69470209  0.83279705    -0.20000
C1986       C  0.82788255  0.66271491  0.81285745    -0.06600
C1987       C  0.82007393  0.62580498  0.83467659     0.14300
C1988       C  0.82228739  0.62863367  0.87510082    -0.20100
C1989       C  0.82794408  0.66550678  0.89493549    -0.06600
C1990       C  0.82130953  0.69538119  0.87328257     0.14300
C1991       C  0.80781854  0.72562142  0.89074029    -0.23400
H1992       H  0.81827118  0.71763543  0.81682709     0.15600
H1993       H  0.81633617  0.60026537  0.89118135     0.15600
C1994       C  0.80545022  0.58174136  0.81755149    -0.23400
H1995       H  0.77693375  0.71898666  0.87777862     0.05800
H1996       H  0.83222870  0.75957441  0.88414096     0.09000
H1997       H  0.80220199  0.72174940  0.92229502     0.09000
H1998       H  0.82906460  0.57124913  0.82410834     0.09000
H1999       H  0.80022704  0.58004363  0.78602319     0.09000
H2000       H  0.77416867  0.55815302  0.83080386     0.05800
C2001       C  0.80467020  0.67487017  0.58332230    -0.20000
C2002       C  0.83609755  0.67022043  0.56281040    -0.06600
C2003       C  0.87266260  0.67716474  0.58417165     0.14300
C2004       C  0.86982230  0.67407569  0.62463673    -0.20100
C2005       C  0.83350440  0.66893947  0.64499111    -0.06600
C2006       C  0.80413253  0.67650458  0.62380414     0.14300
C2007       C  0.77457487  0.69058197  0.64169231    -0.23400
H2008       H  0.78211691  0.68076703  0.56777289     0.15600
H2009       H  0.89794550  0.67946773  0.64032170     0.15600
C2010       C  0.91648679  0.69222818  0.56657837    -0.23400
H2011       H  0.78165938  0.72189602  0.62878337     0.05800
H2012       H  0.77841618  0.69596604  0.67321021     0.09000
H2013       H  0.74066417  0.66648080  0.63537662     0.09000
H2014       H  0.91812560  0.69829392  0.53514037     0.09000
H2015       H  0.92693829  0.66834807  0.57247237     0.09000
H2016       H  0.93996663  0.72333345  0.58004888     0.05800
loop_ 
_geom_bond_atom_site_label_1 
_geom_bond_atom_site_label_2 
_geom_bond_distance 
_geom_bond_site_symmetry_2 
_ccdc_geom_bond_type 
C1            C3   1.537   1_554  S
C1            C5   1.529   1_554  S
C1            C4   1.540   1_554  S
C1          C238   1.536       .  S
C2            C6   1.554       .  S
C2            C8   1.543       .  S
C2            C7   1.537       .  S
C2          C225   1.531       .  S
C3           C11   1.373   1_556  A
C3          C258   1.399       .  A
C4           C15   1.377   1_556  A
C4          C259   1.393       .  A
C5           C19   1.370   1_556  A
C5          C260   1.392       .  A
C6            C9   1.389       .  A
C6          C255   1.399       .  A
C7           C13   1.382       .  A
C7          C256   1.393       .  A
C8           C16   1.386       .  A
C8          C257   1.392       .  A
C9           N10   1.355       .  A
C9           H22   1.082       .  S
N10         C263   1.352       .  A
N10         C134   1.427       .  S
C11         N262   1.352   1_554  A
C11          H12   1.081       .  S
C13         N266   1.355       .  A
C13          H23   1.082       .  S
N14          C15   1.353   1_556  A
N14         C265   1.355       .  A
N14         C350   1.426       .  S
C15          H21   1.082       .  S
C16         N269   1.357       .  A
C16          H18   1.081       .  S
N17          C19   1.352   1_556  A
N17         C268   1.357       .  A
N17         C361   1.426       .  S
C19          H20   1.083       .  S
C24          C26   1.556       .  S
C24          C28   1.544       .  S
C24          C27   1.537       .  S
C24         C241   1.531       .  S
C25          C29   1.538       .  S
C25          C31   1.526       .  S
C25          C30   1.538       .  S
C25         C222   1.534       .  S
C26          C34   1.389       .  A
C26          C29   1.400       .  A
C27          C38   1.382       .  A
C27          C30   1.393       .  A
C28          C42   1.386       .  A
C28          C31   1.391       .  A
C29          C32   1.374       .  A
C30          C36   1.375       .  A
C31          C39   1.370       .  A
C32          N33   1.352       .  A
C32          H45   1.082       .  S
N33          C34   1.357       .  A
N33         C150   1.429       .  S
C34          H35   1.082       .  S
C36          N37   1.353       .  A
C36          H46   1.082       .  S
N37          C38   1.354       .  A
N37         C158   1.425       .  S
C38          H44   1.082       .  S
C39          N40   1.352       .  A
C39          H41   1.083       .  S
N40          C42   1.357       .  A
N40         C184   1.425       .  S
C42          H43   1.081       .  S
C47          C49   1.536       .  S
C47          C51   1.557       .  S
C47          C50   1.545       .  S
C47         C209   1.531       .  S
C48          C52   1.532       .  S
C48          C54   1.542       .  S
C48          C53   1.526       .  S
C48         C190   1.535       .  S
C49          C57   1.382       .  A
C49         C304   1.391       .  A
C50          C61   1.386       .  A
C50         C305   1.392       .  A
C51          C65   1.389       .  A
C51         C306   1.401       .  A
C52          C55   1.371       .  A
C52         C301   1.391       .  A
C53          C59   1.369       .  A
C53         C302   1.392       .  A
C54          C62   1.376       .  A
C54         C303   1.401       .  A
C55         N308   1.352       .  A
C55          H68   1.082       .  S
N56          C57   1.355       .  A
N56         C307   1.352   1_554  A
N56         C102   1.424       .  S
C57          H58   1.082       .  S
C59         N312   1.352       .  A
C59          H69   1.083       .  S
N60          C61   1.358       .  A
N60         C311   1.352   1_554  A
N60         C110   1.426       .  S
C61          H67   1.081       .  S
C62         N315   1.353       .  A
C62          H64   1.082       .  S
N63          C65   1.357       .  A
N63         C314   1.353   1_554  A
N63         C136   1.430       .  S
C65          H66   1.081       .  S
C70          C72   1.527       .  S
C70          C74   1.540       .  S
C70          C73   1.537       .  S
C70         C206   1.536       .  S
C71          C75   1.549       .  S
C71          C77   1.538       .  S
C71          C76   1.549       .  S
C71         C193   1.530       .  S
C72          C80   1.368       .  A
C72          C75   1.393       .  A
C73          C84   1.373       .  A
C73          C76   1.397       .  A
C74          C88   1.376       .  A
C74          C77   1.394       .  A
C75          C78   1.389       .  A
C76          C82   1.386       .  A
C77          C85   1.382       .  A
C78          N79   1.358       .  A
C78          H91   1.082       .  S
N79          C80   1.351       .  A
N79         C182   1.426       .  S
C80          H81   1.083       .  S
C82          N83   1.355       .  A
C82          H92   1.081       .  S
N83          C84   1.352       .  A
N83         C146   1.426       .  S
C84          H90   1.082       .  S
C85          N86   1.356       .  A
C85          H87   1.082       .  S
N86          C88   1.353       .  A
N86         C157   1.427       .  S
C88          H89   1.082       .  S
O93         Mg95   2.152       .  S
O93        Mg857   2.169   1_544  S
O93         C632   1.235       .  S
C94         H133   1.081       .  S
C94         O107   1.235       .  S
C94         O131   1.268       .  A
Mg95       O1384   2.166   1_554  S
Mg95        O391   2.307   1_554  S
Mg95       O1143   2.285       .  S
Mg95       O1114   2.293       .  S
O96        Mg121   2.129       .  S
O96       Mg1398   2.168   1_554  S
O96        C1125   1.235       .  S
O97         C128   1.269       .  A
O97        Mg121   2.296       .  S
C98         N266   1.426       .  S
C98         O100   1.273       .  A
C98         O112   1.274       .  A
O99         C127   1.269       .  A
O99        Mg605   2.296   1_545  S
O100       Mg132   2.271       .  S
Mg101       O107   2.140       .  S
Mg101       O849   2.169       .  S
Mg101       O603   2.296       .  S
Mg101       O619   2.263       .  S
Mg101       O355   2.296       .  S
C102        O140   1.273       .  A
C102        O108   1.271       .  A
O103        C110   1.274       .  A
O103       Mg353   2.296   1_554  S
H104       C1125   1.081       .  S
C105        H634   1.081       .  S
C105        O623   1.235       .  S
C105        O120   1.268   1_565  A
O106        C129   1.268       .  A
O106      Mg1103   2.293   1_455  S
O107       Mg373   2.175       .  S
O108       Mg390   2.273   1_554  S
C109        N269   1.426       .  S
C109        O122   1.270       .  A
C109        O114   1.274       .  A
C110        O137   1.270       .  A
Mg111       O118   2.145       .  S
Mg111       O875   2.169   1_544  S
Mg111       O364   2.290   1_554  S
Mg111       O617   2.288   1_545  S
Mg111       O644   2.275   1_545  S
O112       Mg363   2.290       .  S
O113        C117   1.267   1_455  A
O113       Mg615   2.288       .  S
O114       Mg373   2.296       .  S
O115        C134   1.271       .  A
O115       Mg605   2.263   1_545  S
O116        C136   1.275       .  A
O116       Mg384   2.303   1_554  S
C117       H1112   1.081       .  S
C117       O1104   1.235       .  S
O118       Mg384   2.173   1_554  S
O118        C129   1.235       .  S
O119       Mg138   2.134       .  S
O119       Mg867   2.169       .  S
O119        C609   1.235       .  S
O120       Mg132   2.289       .  S
Mg121       O359   2.175   1_554  S
Mg121       O137   2.262       .  S
Mg121       O366   2.296   1_554  S
O122      Mg1146   2.259       .  S
H123        C632   1.081       .  S
O124       Mg132   2.147       .  S
O124      Mg1355   2.166   1_455  S
O124       C1135   1.235       .  S
H125       C1135   1.081       .  S
H126        C129   1.081       .  S
C127       H1133   1.081       .  S
C127       O1132   1.235       .  S
C128        H627   1.081       .  S
C128        O597   1.235       .  S
H130        C609   1.081       .  S
O131      Mg1146   2.287       .  S
Mg132       O370   2.173       .  S
Mg132       O368   2.303       .  S
C134        O139   1.276       .  A
O135        C136   1.274       .  A
O135      Mg1103   2.285   1_455  S
Mg138      O1356   2.168   1_455  S
Mg138       O360   2.273       .  S
Mg138      O1130   2.259   1_455  S
Mg138      O1139   2.287   1_455  S
O139       Mg347   2.307       .  S
O140       Mg615   2.275       .  S
O141       Mg143   2.131       .  S
O141      Mg1157   2.170   1_455  S
O141       C1184   1.235       .  S
C142        H181   1.081       .  S
C142        O155   1.235       .  S
C142        O179   1.268       .  A
Mg143       O676   2.171       .  S
Mg143       O187   2.289       .  S
Mg143       O687   2.255       .  S
Mg143       O658   2.294       .  S
O144       Mg169   2.143       .  S
O144       Mg690   2.171       .  S
O144        C669   1.235       .  S
O145        C176   1.268       .  A
O145       Mg169   2.288       .  S
C146        O148   1.272       .  A
C146        O160   1.274       .  A
O147        C175   1.268       .  A
O147      Mg1157   2.290   1_455  S
O148       Mg180   2.269       .  S
Mg149       O155   2.139       .  S
Mg149      O1149   2.170       .  S
Mg149       O151   2.286       .  S
Mg149      O1155   2.290       .  S
Mg149      O1171   2.268       .  S
C150        O188   1.272       .  A
C150        O156   1.276       .  A
O151        C158   1.273       .  A
H152        C669   1.081       .  S
C153       H1186   1.082       .  S
C153       O1175   1.235       .  S
C153        O168   1.269   1_655  A
O154        C177   1.269       .  A
O154       Mg647   2.294   1_545  S
O155       Mg169   2.170       .  S
O156       Mg186   2.306       .  S
C157        O170   1.273       .  A
C157        O162   1.273       .  A
C158        O185   1.272       .  A
Mg159       O166   2.150       .  S
Mg159      O1175   2.168   1_455  S
Mg159       O160   2.297       .  S
Mg159      O1169   2.292   1_455  S
Mg159      O1196   2.272   1_455  S
O161        C165   1.268   1_545  A
O161      Mg1167   2.292       .  S
O162       Mg169   2.290       .  S
O163        C182   1.271       .  A
O163      Mg1157   2.268   1_455  S
O164        C184   1.275       .  A
O164       Mg180   2.301       .  S
C165        H656   1.081       .  S
C165        O648   1.235       .  S
O166       Mg180   2.169       .  S
O166        C177   1.235       .  S
O167       Mg186   2.147       .  S
O167      Mg1167   2.168       .  S
O167       C1161   1.235       .  S
O168       Mg180   2.297       .  S
Mg169       O185   2.268       .  S
O170       Mg690   2.275       .  S
H171       C1184   1.081       .  S
O172       Mg180   2.140       .  S
O172       Mg647   2.171   1_545  S
O172        C679   1.235   1_545  S
H173        C679   1.081   1_545  S
H174        C177   1.081       .  S
C175        H677   1.081       .  S
C175        O676   1.235       .  S
C176       H1179   1.081       .  S
C176       O1149   1.235       .  S
H178       C1161   1.082       .  S
O179       Mg690   2.291       .  S
C182        O187   1.273       .  A
O183        C184   1.269       .  A
O183       Mg647   2.255   1_545  S
Mg186       O648   2.171   1_545  S
Mg186       O674   2.275   1_545  S
Mg186       O683   2.291   1_545  S
O188      Mg1167   2.272       .  S
C189        C190   1.407       .  A
C189        C194   1.403       .  A
C189        H196   1.083       .  S
C190        C191   1.423       .  A
C191        C198   1.509       .  S
C191        C192   1.403       .  A
C192        C193   1.406       .  A
C192        H197   1.082       .  S
C193        C194   1.422       .  A
C194        C195   1.510       .  S
C195        H199   1.111       .  S
C195        H200   1.105       .  S
C195        H201   1.110       .  S
C198        H202   1.106       .  S
C198        H203   1.110       .  S
C198        H204   1.111       .  S
C205        C206   1.407       .  A
C205        C210   1.402       .  A
C205        H212   1.081       .  S
C206        C207   1.423       .  A
C207        C214   1.510       .  S
C207        C208   1.403       .  A
C208        C209   1.406       .  A
C208        H213   1.081       .  S
C209        C210   1.422       .  A
C210        C211   1.510       .  S
C211        H215   1.111       .  S
C211        H216   1.104       .  S
C211        H217   1.110       .  S
C214        H218   1.104       .  S
C214        H219   1.110       .  S
C214        H220   1.111       .  S
C221        C222   1.408       .  A
C221        C226   1.402       .  A
C221        H228   1.081       .  S
C222        C223   1.422       .  A
C223        C230   1.511       .  S
C223        C224   1.401       .  A
C224        C225   1.407       .  A
C224        H229   1.081       .  S
C225        C226   1.421       .  A
C226        C227   1.510       .  S
C227        H231   1.111       .  S
C227        H232   1.110       .  S
C227        H233   1.104       .  S
C230        H234   1.110       .  S
C230        H235   1.104       .  S
C230        H236   1.111       .  S
C237        C238   1.407       .  A
C237        C242   1.401       .  A
C237        H244   1.081       .  S
C238        C239   1.422       .  A
C239        C246   1.510       .  S
C239        C240   1.403       .  A
C240        C241   1.407       .  A
C240        H245   1.080       .  S
C241        C242   1.422       .  A
C242        C243   1.511       .  S
C243        H247   1.111       .  S
C243        H248   1.104       .  S
C243        H249   1.110       .  S
C246        H250   1.104       .  S
C246        H251   1.110       .  S
C246        H252   1.111       .  S
C253        C255   1.537       .  S
C253        C257   1.529       .  S
C253        C256   1.540       .  S
C253        C490   1.536       .  S
C254        C258   1.554       .  S
C254        C260   1.543       .  S
C254        C259   1.537       .  S
C254        C477   1.531       .  S
C255        C263   1.373       .  A
C256        C267   1.377       .  A
C257        C271   1.370       .  A
C258        C261   1.389       .  A
C259        C265   1.382       .  A
C260        C268   1.386       .  A
C261        N262   1.355       .  A
C261        H274   1.082       .  S
N262        C386   1.427       .  S
C263        H264   1.081       .  S
C265        H275   1.082       .  S
N266        C267   1.353       .  A
C267        H273   1.082       .  S
C268        H270   1.081       .  S
N269        C271   1.352       .  A
C271        H272   1.083       .  S
C276        C278   1.556       .  S
C276        C280   1.544       .  S
C276        C279   1.537       .  S
C276        C493   1.531       .  S
C277        C281   1.538       .  S
C277        C283   1.526       .  S
C277        C282   1.538       .  S
C277        C474   1.534       .  S
C278        C286   1.389       .  A
C278        C281   1.400       .  A
C279        C290   1.382       .  A
C279        C282   1.393       .  A
C280        C294   1.386       .  A
C280        C283   1.391       .  A
C281        C284   1.374       .  A
C282        C288   1.375       .  A
C283        C291   1.370       .  A
C284        N285   1.352       .  A
C284        H297   1.082       .  S
N285        C286   1.357       .  A
N285        C402   1.429       .  S
C286        H287   1.082       .  S
C288        N289   1.353       .  A
C288        H298   1.082       .  S
N289        C290   1.354       .  A
N289        C410   1.425       .  S
C290        H296   1.082       .  S
C291        N292   1.352       .  A
C291        H293   1.083       .  S
N292        C294   1.357       .  A
N292        C436   1.425       .  S
C294        H295   1.081       .  S
C299        C301   1.536       .  S
C299        C303   1.557       .  S
C299        C302   1.545       .  S
C299        C461   1.531       .  S
C300        C304   1.532   1_556  S
C300        C306   1.542   1_556  S
C300        C305   1.526   1_556  S
C300        C442   1.535       .  S
C301        C309   1.382       .  A
C302        C313   1.386       .  A
C303        C317   1.389       .  A
C304        C307   1.371   1_554  A
C305        C311   1.369   1_554  A
C306        C314   1.376   1_554  A
C307        H320   1.082       .  S
N308        C309   1.355       .  A
N308        C354   1.424       .  S
C309        H310   1.082       .  S
C311        H321   1.083       .  S
N312        C313   1.358       .  A
N312        C362   1.426       .  S
C313        H319   1.081       .  S
C314        H316   1.082       .  S
N315        C317   1.357       .  A
N315        C388   1.430       .  S
C317        H318   1.081       .  S
C322        C324   1.527       .  S
C322        C326   1.540       .  S
C322        C325   1.537       .  S
C322        C458   1.536       .  S
C323        C327   1.549       .  S
C323        C329   1.538       .  S
C323        C328   1.549       .  S
C323        C445   1.530       .  S
C324        C332   1.368       .  A
C324        C327   1.393       .  A
C325        C336   1.373       .  A
C325        C328   1.397       .  A
C326        C340   1.376       .  A
C326        C329   1.394       .  A
C327        C330   1.389       .  A
C328        C334   1.386       .  A
C329        C337   1.382       .  A
C330        N331   1.358       .  A
C330        H343   1.082       .  S
N331        C332   1.351       .  A
N331        C434   1.426       .  S
C332        H333   1.083       .  S
C334        N335   1.355       .  A
C334        H344   1.081       .  S
N335        C336   1.352       .  A
N335        C398   1.426       .  S
C336        H342   1.082       .  S
C337        N338   1.356       .  A
C337        H339   1.082       .  S
N338        C340   1.353       .  A
N338        C409   1.427       .  S
C340        H341   1.082       .  S
O345       Mg347   2.152       .  S
O345       Mg605   2.169   1_545  S
O345        C884   1.235       .  S
C346        H385   1.081       .  S
C346        O359   1.235       .  S
C346        O383   1.268       .  A
Mg347      O1132   2.166       .  S
Mg347      O1395   2.285       .  S
Mg347      O1366   2.293       .  S
O348      Mg1146   2.168       .  S
O348       Mg373   2.129       .  S
O348       C1377   1.235       .  S
O349        C380   1.269       .  A
O349       Mg373   2.296       .  S
C350        O352   1.273       .  A
C350        O364   1.274       .  A
O351        C379   1.269       .  A
O351       Mg857   2.296   1_545  S
O352       Mg384   2.271       .  S
Mg353       O597   2.169   1_556  S
Mg353       O359   2.140       .  S
Mg353       O855   2.296       .  S
Mg353       O871   2.263       .  S
C354        O392   1.273       .  A
C354        O360   1.271       .  A
O355        C362   1.274       .  A
H356       C1377   1.081       .  S
C357        H886   1.081       .  S
C357        O875   1.235       .  S
C357        O372   1.268   1_565  A
O358        C381   1.268       .  A
O358      Mg1355   2.293   1_455  S
C361        O374   1.270       .  A
C361        O366   1.274       .  A
C362        O389   1.270       .  A
Mg363       O370   2.145       .  S
Mg363       O623   2.169   1_545  S
Mg363       O869   2.288   1_545  S
Mg363       O896   2.275   1_545  S
O365        C369   1.267   1_455  A
O365       Mg867   2.288       .  S
O367        C386   1.271       .  A
O367       Mg857   2.263   1_545  S
O368        C388   1.275       .  A
C369       H1364   1.081       .  S
C369       O1356   1.235       .  S
O370        C381   1.235       .  S
O371       Mg615   2.169   1_556  S
O371       Mg390   2.134       .  S
O371        C861   1.235       .  S
O372       Mg384   2.289       .  S
Mg373       O389   2.262       .  S
O374      Mg1398   2.259       .  S
H375        C884   1.081       .  S
O376      Mg1103   2.166   1_456  S
O376       Mg384   2.147       .  S
O376       C1387   1.235       .  S
H377       C1387   1.081       .  S
H378        C381   1.081       .  S
C379       H1385   1.081       .  S
C379       O1384   1.235       .  S
C380        H879   1.081       .  S
C380        O849   1.235       .  S
H382        C861   1.081       .  S
O383      Mg1398   2.287       .  S
C386        O391   1.276       .  A
O387        C388   1.274       .  A
O387      Mg1355   2.285   1_455  S
Mg390      O1104   2.168   1_456  S
Mg390      O1382   2.259   1_455  S
Mg390      O1391   2.287   1_455  S
O392       Mg867   2.275       .  S
O393       Mg395   2.131       .  S
O393      Mg1409   2.170   1_455  S
O393       C1436   1.235       .  S
C394        H433   1.081       .  S
C394        O407   1.235       .  S
C394        O431   1.268       .  A
Mg395       O928   2.171       .  S
Mg395       O439   2.289       .  S
Mg395       O939   2.255       .  S
Mg395       O910   2.294       .  S
O396       Mg942   2.171       .  S
O396       Mg421   2.143       .  S
O396        C921   1.235       .  S
O397        C428   1.268       .  A
O397       Mg421   2.288       .  S
C398        O400   1.272       .  A
C398        O412   1.274       .  A
O399        C427   1.268       .  A
O399      Mg1409   2.290   1_455  S
O400       Mg432   2.269       .  S
Mg401      O1401   2.170       .  S
Mg401       O407   2.139       .  S
Mg401      O1407   2.290       .  S
Mg401      O1423   2.268       .  S
Mg401       O403   2.286       .  S
C402        O440   1.272       .  A
C402        O408   1.276       .  A
O403        C410   1.273       .  A
H404        C921   1.081       .  S
C405       H1438   1.082       .  S
C405       O1427   1.235       .  S
C405        O420   1.269   1_655  A
O406        C429   1.269       .  A
O406       Mg899   2.294   1_545  S
O407       Mg421   2.170       .  S
O408       Mg438   2.306       .  S
C409        O422   1.273       .  A
C409        O414   1.273       .  A
C410        O437   1.272       .  A
Mg411       O418   2.150       .  S
Mg411      O1427   2.168   1_455  S
Mg411       O412   2.297       .  S
Mg411      O1421   2.292   1_455  S
Mg411      O1448   2.272   1_455  S
O413        C417   1.268   1_545  A
O413      Mg1419   2.292       .  S
O414       Mg421   2.290       .  S
O415        C434   1.271       .  A
O415      Mg1409   2.268   1_455  S
O416        C436   1.275       .  A
O416       Mg432   2.301       .  S
C417        H908   1.081       .  S
C417        O900   1.235       .  S
O418       Mg432   2.169       .  S
O418        C429   1.235       .  S
O419      Mg1419   2.168       .  S
O419       Mg438   2.147       .  S
O419       C1413   1.235       .  S
O420       Mg432   2.297       .  S
Mg421       O437   2.268       .  S
O422       Mg942   2.275       .  S
H423       C1436   1.081       .  S
O424       Mg899   2.171   1_545  S
O424       Mg432   2.140       .  S
O424        C931   1.235   1_545  S
H425        C931   1.081   1_545  S
H426        C429   1.081       .  S
C427        H929   1.081       .  S
C427        O928   1.235       .  S
C428       H1431   1.081       .  S
C428       O1401   1.235       .  S
H430       C1413   1.082       .  S
O431       Mg942   2.291       .  S
C434        O439   1.273       .  A
O435        C436   1.269       .  A
O435       Mg899   2.255   1_545  S
Mg438       O900   2.171   1_545  S
Mg438       O926   2.275   1_545  S
Mg438       O935   2.291   1_545  S
O440      Mg1419   2.272       .  S
C441        C442   1.407       .  A
C441        C446   1.403       .  A
C441        H448   1.083       .  S
C442        C443   1.423       .  A
C443        C450   1.509       .  S
C443        C444   1.403       .  A
C444        C445   1.406       .  A
C444        H449   1.082       .  S
C445        C446   1.422       .  A
C446        C447   1.510       .  S
C447        H451   1.111       .  S
C447        H452   1.105       .  S
C447        H453   1.110       .  S
C450        H454   1.106       .  S
C450        H455   1.110       .  S
C450        H456   1.111       .  S
C457        C458   1.407       .  A
C457        C462   1.402       .  A
C457        H464   1.081       .  S
C458        C459   1.423       .  A
C459        C466   1.510       .  S
C459        C460   1.403       .  A
C460        C461   1.406       .  A
C460        H465   1.081       .  S
C461        C462   1.422       .  A
C462        C463   1.510       .  S
C463        H467   1.111       .  S
C463        H468   1.104       .  S
C463        H469   1.110       .  S
C466        H470   1.104       .  S
C466        H471   1.110       .  S
C466        H472   1.111       .  S
C473        C474   1.408       .  A
C473        C478   1.402       .  A
C473        H480   1.081       .  S
C474        C475   1.422       .  A
C475        C482   1.511       .  S
C475        C476   1.401       .  A
C476        C477   1.407       .  A
C476        H481   1.081       .  S
C477        C478   1.421       .  A
C478        C479   1.510       .  S
C479        H483   1.111       .  S
C479        H484   1.110       .  S
C479        H485   1.104       .  S
C482        H486   1.110       .  S
C482        H487   1.104       .  S
C482        H488   1.111       .  S
C489        C490   1.407       .  A
C489        C494   1.401       .  A
C489        H496   1.081       .  S
C490        C491   1.422       .  A
C491        C498   1.510       .  S
C491        C492   1.403       .  A
C492        C493   1.407       .  A
C492        H497   1.080       .  S
C493        C494   1.422       .  A
C494        C495   1.511       .  S
C495        H499   1.111       .  S
C495        H500   1.104       .  S
C495        H501   1.110       .  S
C498        H502   1.104       .  S
C498        H503   1.110       .  S
C498        H504   1.111       .  S
C505        C507   1.537   1_554  S
C505        C509   1.529   1_554  S
C505        C508   1.540   1_554  S
C505        C742   1.536       .  S
C506        C510   1.554       .  S
C506        C512   1.543       .  S
C506        C511   1.537       .  S
C506        C729   1.531       .  S
C507        C515   1.373   1_556  A
C507        C762   1.399       .  A
C508        C519   1.377   1_556  A
C508        C763   1.393       .  A
C509        C523   1.370   1_556  A
C509        C764   1.392       .  A
C510        C759   1.399       .  A
C510        C513   1.389       .  A
C511        C760   1.393       .  A
C511        C517   1.382       .  A
C512        C761   1.392       .  A
C512        C520   1.386       .  A
C513        N514   1.355       .  A
C513        H526   1.082       .  S
N514        C767   1.352       .  A
N514        C638   1.427       .  S
C515        N766   1.352   1_554  A
C515        H516   1.081       .  S
C517        N770   1.355       .  A
C517        H527   1.082       .  S
N518        C769   1.355       .  A
N518        C519   1.353   1_556  A
N518        C854   1.426       .  S
C519        H525   1.082       .  S
C520        N773   1.357       .  A
C520        H522   1.081       .  S
N521        C772   1.357       .  A
N521        C523   1.352   1_556  A
N521        C865   1.426       .  S
C523        H524   1.083       .  S
C528        C530   1.556       .  S
C528        C532   1.544       .  S
C528        C531   1.537       .  S
C528        C745   1.531       .  S
C529        C533   1.538       .  S
C529        C535   1.526       .  S
C529        C534   1.538       .  S
C529        C726   1.534       .  S
C530        C538   1.389       .  A
C530        C533   1.400       .  A
C531        C542   1.382       .  A
C531        C534   1.393       .  A
C532        C546   1.386       .  A
C532        C535   1.391       .  A
C533        C536   1.374       .  A
C534        C540   1.375       .  A
C535        C543   1.370       .  A
C536        N537   1.352       .  A
C536        H549   1.082       .  S
N537        C538   1.357       .  A
N537        C654   1.429       .  S
C538        H539   1.082       .  S
C540        N541   1.353       .  A
C540        H550   1.082       .  S
N541        C542   1.354       .  A
N541        C662   1.425       .  S
C542        H548   1.082       .  S
C543        N544   1.352       .  A
C543        H545   1.083       .  S
N544        C546   1.357       .  A
N544        C688   1.425       .  S
C546        H547   1.081       .  S
C551        C553   1.536       .  S
C551        C555   1.557       .  S
C551        C554   1.545       .  S
C551        C713   1.531       .  S
C552        C556   1.532       .  S
C552        C558   1.542       .  S
C552        C557   1.526       .  S
C552        C694   1.535       .  S
C553        C561   1.382       .  A
C553        C808   1.391       .  A
C554        C565   1.386       .  A
C554        C809   1.392       .  A
C555        C569   1.389       .  A
C555        C810   1.401       .  A
C556        C805   1.391       .  A
C556        C559   1.371       .  A
C557        C806   1.392       .  A
C557        C563   1.369       .  A
C558        C807   1.401       .  A
C558        C566   1.376       .  A
C559        N812   1.352       .  A
C559        H572   1.082       .  S
N560        C811   1.352   1_554  A
N560        C561   1.355       .  A
N560        C606   1.424       .  S
C561        H562   1.082       .  S
C563        N816   1.352       .  A
C563        H573   1.083       .  S
N564        C815   1.352   1_554  A
N564        C565   1.358       .  A
N564        C614   1.426       .  S
C565        H571   1.081       .  S
C566        N819   1.353       .  A
C566        H568   1.082       .  S
N567        C818   1.353   1_554  A
N567        C569   1.357       .  A
N567        C640   1.430       .  S
C569        H570   1.081       .  S
C574        C576   1.527       .  S
C574        C578   1.540       .  S
C574        C577   1.537       .  S
C574        C710   1.536       .  S
C575        C579   1.549       .  S
C575        C581   1.538       .  S
C575        C580   1.549       .  S
C575        C697   1.530       .  S
C576        C584   1.368       .  A
C576        C579   1.393       .  A
C577        C588   1.373       .  A
C577        C580   1.397       .  A
C578        C592   1.376       .  A
C578        C581   1.394       .  A
C579        C582   1.389       .  A
C580        C586   1.386       .  A
C581        C589   1.382       .  A
C582        N583   1.358       .  A
C582        H595   1.082       .  S
N583        C584   1.351       .  A
N583        C686   1.426       .  S
C584        H585   1.083       .  S
C586        N587   1.355       .  A
C586        H596   1.081       .  S
N587        C588   1.352       .  A
N587        C650   1.426       .  S
C588        H594   1.082       .  S
C589        N590   1.356       .  A
C589        H591   1.082       .  S
N590        C592   1.353       .  A
N590        C661   1.427       .  S
C592        H593   1.082       .  S
O597       Mg599   2.152       .  S
C598        H637   1.081       .  S
C598        O611   1.235       .  S
C598        O635   1.268       .  A
Mg599      O1888   2.166   1_554  S
Mg599       O895   2.307   1_554  S
Mg599      O1647   2.285       .  S
Mg599      O1618   2.293       .  S
O600      Mg1902   2.168   1_554  S
O600       Mg625   2.129       .  S
O600       C1629   1.235       .  S
O601        C632   1.269   1_565  A
O601       Mg625   2.296       .  S
C602        N770   1.426       .  S
C602        O604   1.273       .  A
C602        O616   1.274       .  A
O603        C631   1.269       .  A
O604       Mg636   2.271       .  S
Mg605       O611   2.140       .  S
Mg605       O859   2.296       .  S
C606        O644   1.273       .  A
C606        O612   1.271       .  A
O607        C614   1.274       .  A
O607       Mg857   2.296   1_554  S
H608       C1629   1.081       .  S
C609        O624   1.268       .  A
O610        C633   1.268       .  A
O610      Mg1607   2.293   1_455  S
O611       Mg877   2.175       .  S
O612       Mg894   2.273   1_554  S
C613        N773   1.426       .  S
C613        O626   1.270       .  A
C613        O618   1.274       .  A
C614        O641   1.270       .  A
Mg615       O622   2.145       .  S
Mg615       O868   2.290   1_554  S
O616       Mg867   2.290       .  S
O617        C621   1.267   1_455  A
O618       Mg877   2.296       .  S
O619        C638   1.271       .  A
O620        C640   1.275       .  A
O620       Mg888   2.303   1_554  S
C621       H1616   1.081       .  S
C621       O1608   1.235       .  S
O622       Mg888   2.173   1_554  S
O622        C633   1.235       .  S
O623       Mg642   2.134       .  S
O624       Mg636   2.289       .  S
Mg625       O863   2.175   1_554  S
Mg625       O870   2.296   1_554  S
Mg625       O641   2.262       .  S
O626      Mg1650   2.259       .  S
O628      Mg1859   2.166   1_455  S
O628       Mg636   2.147       .  S
O628       C1639   1.235       .  S
H629       C1639   1.081       .  S
H630        C633   1.081       .  S
C631       H1637   1.081       .  S
C631       O1636   1.235       .  S
O635      Mg1650   2.287       .  S
Mg636       O874   2.173       .  S
Mg636       O872   2.303       .  S
C638        O643   1.276       .  A
O639        C640   1.274       .  A
O639      Mg1607   2.285   1_455  S
Mg642      O1860   2.168   1_455  S
Mg642       O864   2.273       .  S
Mg642      O1634   2.259   1_455  S
Mg642      O1643   2.287   1_455  S
O643       Mg851   2.307       .  S
O645       Mg647   2.131       .  S
O645      Mg1661   2.170   1_455  S
O645       C1688   1.235       .  S
C646        H685   1.081       .  S
C646        O659   1.235       .  S
C646        O683   1.268       .  A
Mg647       O691   2.289       .  S
O648       Mg673   2.143       .  S
O649        C680   1.268       .  A
O649       Mg673   2.288       .  S
C650        O652   1.272       .  A
C650        O664   1.274       .  A
O651        C679   1.268       .  A
O651      Mg1661   2.290   1_455  S
O652       Mg684   2.269       .  S
Mg653      O1653   2.170       .  S
Mg653       O659   2.139       .  S
Mg653      O1659   2.290       .  S
Mg653      O1675   2.268       .  S
Mg653       O655   2.286       .  S
C654        O692   1.272       .  A
C654        O660   1.276       .  A
O655        C662   1.273       .  A
C657       H1690   1.082       .  S
C657       O1679   1.235       .  S
C657        O672   1.269   1_655  A
O658        C681   1.269       .  A
O659       Mg673   2.170       .  S
O660       Mg690   2.306       .  S
C661        O674   1.273       .  A
C661        O666   1.273       .  A
C662        O689   1.272       .  A
Mg663       O670   2.150       .  S
Mg663      O1679   2.168   1_455  S
Mg663       O664   2.297       .  S
Mg663      O1673   2.292   1_455  S
Mg663      O1700   2.272   1_455  S
O665        C669   1.268       .  A
O665      Mg1671   2.292       .  S
O666       Mg673   2.290       .  S
O667        C686   1.271       .  A
O667      Mg1661   2.268   1_455  S
O668        C688   1.275       .  A
O668       Mg684   2.301       .  S
O670       Mg684   2.169       .  S
O670        C681   1.235       .  S
O671      Mg1671   2.168       .  S
O671       Mg690   2.147       .  S
O671       C1665   1.235       .  S
O672       Mg684   2.297       .  S
Mg673       O689   2.268       .  S
H675       C1688   1.081       .  S
O676       Mg684   2.140       .  S
H678        C681   1.081       .  S
C680       H1683   1.081       .  S
C680       O1653   1.235       .  S
H682       C1665   1.082       .  S
C686        O691   1.273       .  A
O687        C688   1.269       .  A
O692      Mg1671   2.272       .  S
C693        C694   1.407       .  A
C693        C698   1.403       .  A
C693        H700   1.083       .  S
C694        C695   1.423       .  A
C695        C702   1.509       .  S
C695        C696   1.403       .  A
C696        C697   1.406       .  A
C696        H701   1.082       .  S
C697        C698   1.422       .  A
C698        C699   1.510       .  S
C699        H703   1.111       .  S
C699        H704   1.105       .  S
C699        H705   1.110       .  S
C702        H706   1.106       .  S
C702        H707   1.110       .  S
C702        H708   1.111       .  S
C709        C710   1.407       .  A
C709        C714   1.402       .  A
C709        H716   1.081       .  S
C710        C711   1.423       .  A
C711        C718   1.510       .  S
C711        C712   1.403       .  A
C712        C713   1.406       .  A
C712        H717   1.081       .  S
C713        C714   1.422       .  A
C714        C715   1.510       .  S
C715        H719   1.111       .  S
C715        H720   1.104       .  S
C715        H721   1.110       .  S
C718        H722   1.104       .  S
C718        H723   1.110       .  S
C718        H724   1.111       .  S
C725        C726   1.408       .  A
C725        C730   1.402       .  A
C725        H732   1.081       .  S
C726        C727   1.422       .  A
C727        C734   1.511       .  S
C727        C728   1.401       .  A
C728        C729   1.407       .  A
C728        H733   1.081       .  S
C729        C730   1.421       .  A
C730        C731   1.510       .  S
C731        H735   1.111       .  S
C731        H736   1.110       .  S
C731        H737   1.104       .  S
C734        H738   1.110       .  S
C734        H739   1.104       .  S
C734        H740   1.111       .  S
C741        C742   1.407       .  A
C741        C746   1.401       .  A
C741        H748   1.081       .  S
C742        C743   1.422       .  A
C743        C750   1.510       .  S
C743        C744   1.403       .  A
C744        C745   1.407       .  A
C744        H749   1.080       .  S
C745        C746   1.422       .  A
C746        C747   1.511       .  S
C747        H751   1.111       .  S
C747        H752   1.104       .  S
C747        H753   1.110       .  S
C750        H754   1.104       .  S
C750        H755   1.110       .  S
C750        H756   1.111       .  S
C757        C759   1.537       .  S
C757        C761   1.529       .  S
C757        C760   1.540       .  S
C757        C994   1.536       .  S
C758        C762   1.554       .  S
C758        C764   1.543       .  S
C758        C763   1.537       .  S
C758        C981   1.531       .  S
C759        C767   1.373       .  A
C760        C771   1.377       .  A
C761        C775   1.370       .  A
C762        C765   1.389       .  A
C763        C769   1.382       .  A
C764        C772   1.386       .  A
C765        N766   1.355       .  A
C765        H778   1.082       .  S
N766        C890   1.427       .  S
C767        H768   1.081       .  S
C769        H779   1.082       .  S
N770        C771   1.353       .  A
C771        H777   1.082       .  S
C772        H774   1.081       .  S
N773        C775   1.352       .  A
C775        H776   1.083       .  S
C780        C782   1.556       .  S
C780        C784   1.544       .  S
C780        C783   1.537       .  S
C780        C997   1.531       .  S
C781        C785   1.538       .  S
C781        C787   1.526       .  S
C781        C786   1.538       .  S
C781        C978   1.534       .  S
C782        C790   1.389       .  A
C782        C785   1.400       .  A
C783        C794   1.382       .  A
C783        C786   1.393       .  A
C784        C798   1.386       .  A
C784        C787   1.391       .  A
C785        C788   1.374       .  A
C786        C792   1.375       .  A
C787        C795   1.370       .  A
C788        N789   1.352       .  A
C788        H801   1.082       .  S
N789        C790   1.357       .  A
N789        C906   1.429       .  S
C790        H791   1.082       .  S
C792        N793   1.353       .  A
C792        H802   1.082       .  S
N793        C794   1.354       .  A
N793        C914   1.425       .  S
C794        H800   1.082       .  S
C795        N796   1.352       .  A
C795        H797   1.083       .  S
N796        C798   1.357       .  A
N796        C940   1.425       .  S
C798        H799   1.081       .  S
C803        C805   1.536       .  S
C803        C807   1.557       .  S
C803        C806   1.545       .  S
C803        C965   1.531       .  S
C804        C808   1.532   1_556  S
C804        C810   1.542   1_556  S
C804        C809   1.526   1_556  S
C804        C946   1.535       .  S
C805        C813   1.382       .  A
C806        C817   1.386       .  A
C807        C821   1.389       .  A
C808        C811   1.371   1_554  A
C809        C815   1.369   1_554  A
C810        C818   1.376   1_554  A
C811        H824   1.082       .  S
N812        C813   1.355       .  A
N812        C858   1.424       .  S
C813        H814   1.082       .  S
C815        H825   1.083       .  S
N816        C817   1.358       .  A
N816        C866   1.426       .  S
C817        H823   1.081       .  S
C818        H820   1.082       .  S
N819        C821   1.357       .  A
N819        C892   1.430       .  S
C821        H822   1.081       .  S
C826        C828   1.527       .  S
C826        C830   1.540       .  S
C826        C829   1.537       .  S
C826        C962   1.536       .  S
C827        C831   1.549       .  S
C827        C833   1.538       .  S
C827        C832   1.549       .  S
C827        C949   1.530       .  S
C828        C836   1.368       .  A
C828        C831   1.393       .  A
C829        C840   1.373       .  A
C829        C832   1.397       .  A
C830        C844   1.376       .  A
C830        C833   1.394       .  A
C831        C834   1.389       .  A
C832        C838   1.386       .  A
C833        C841   1.382       .  A
C834        N835   1.358       .  A
C834        H847   1.082       .  S
N835        C836   1.351       .  A
N835        C938   1.426       .  S
C836        H837   1.083       .  S
C838        N839   1.355       .  A
C838        H848   1.081       .  S
N839        C840   1.352       .  A
N839        C902   1.426       .  S
C840        H846   1.082       .  S
C841        N842   1.356       .  A
C841        H843   1.082       .  S
N842        C844   1.353       .  A
N842        C913   1.427       .  S
C844        H845   1.082       .  S
O849       Mg851   2.152       .  S
C850        H889   1.081       .  S
C850        O863   1.235       .  S
C850        O887   1.268       .  A
Mg851      O1636   2.166       .  S
Mg851      O1899   2.285       .  S
Mg851      O1870   2.293       .  S
O852      Mg1650   2.168       .  S
O852       Mg877   2.129       .  S
O852       C1881   1.235       .  S
O853        C884   1.269   1_565  A
O853       Mg877   2.296       .  S
C854        O856   1.273       .  A
C854        O868   1.274       .  A
O855        C883   1.269       .  A
O856       Mg888   2.271       .  S
Mg857       O863   2.140       .  S
C858        O896   1.273       .  A
C858        O864   1.271       .  A
O859        C866   1.274       .  A
H860       C1881   1.081       .  S
C861        O876   1.268       .  A
O862        C885   1.268       .  A
O862      Mg1859   2.293   1_455  S
C865        O878   1.270       .  A
C865        O870   1.274       .  A
C866        O893   1.270       .  A
Mg867       O874   2.145       .  S
O869        C873   1.267   1_455  A
O871        C890   1.271       .  A
O872        C892   1.275       .  A
C873       H1868   1.081       .  S
C873       O1860   1.235       .  S
O874        C885   1.235       .  S
O875       Mg894   2.134       .  S
O876       Mg888   2.289       .  S
Mg877       O893   2.262       .  S
O878      Mg1902   2.259       .  S
O880      Mg1607   2.166   1_456  S
O880       Mg888   2.147       .  S
O880       C1891   1.235       .  S
H881       C1891   1.081       .  S
H882        C885   1.081       .  S
C883       H1889   1.081       .  S
C883       O1888   1.235       .  S
O887      Mg1902   2.287       .  S
C890        O895   1.276       .  A
O891        C892   1.274       .  A
O891      Mg1859   2.285   1_455  S
Mg894      O1608   2.168   1_456  S
Mg894      O1886   2.259   1_455  S
Mg894      O1895   2.287   1_455  S
O897       Mg899   2.131       .  S
O897      Mg1913   2.170   1_455  S
O897       C1940   1.235       .  S
C898        H937   1.081       .  S
C898        O911   1.235       .  S
C898        O935   1.268       .  A
Mg899       O943   2.289       .  S
O900       Mg925   2.143       .  S
O901        C932   1.268       .  A
O901       Mg925   2.288       .  S
C902        O904   1.272       .  A
C902        O916   1.274       .  A
O903        C931   1.268       .  A
O903      Mg1913   2.290   1_455  S
O904       Mg936   2.269       .  S
Mg905      O1905   2.170       .  S
Mg905       O911   2.139       .  S
Mg905      O1911   2.290       .  S
Mg905      O1927   2.268       .  S
Mg905       O907   2.286       .  S
C906        O944   1.272       .  A
C906        O912   1.276       .  A
O907        C914   1.273       .  A
C909       H1942   1.082       .  S
C909       O1931   1.235       .  S
C909        O924   1.269   1_655  A
O910        C933   1.269       .  A
O911       Mg925   2.170       .  S
O912       Mg942   2.306       .  S
C913        O926   1.273       .  A
C913        O918   1.273       .  A
C914        O941   1.272       .  A
Mg915       O922   2.150       .  S
Mg915      O1931   2.168   1_455  S
Mg915       O916   2.297       .  S
Mg915      O1925   2.292   1_455  S
Mg915      O1952   2.272   1_455  S
O917        C921   1.268       .  A
O917      Mg1923   2.292       .  S
O918       Mg925   2.290       .  S
O919        C938   1.271       .  A
O919      Mg1913   2.268   1_455  S
O920        C940   1.275       .  A
O920       Mg936   2.301       .  S
O922       Mg936   2.169       .  S
O922        C933   1.235       .  S
O923      Mg1923   2.168       .  S
O923       Mg942   2.147       .  S
O923       C1917   1.235       .  S
O924       Mg936   2.297       .  S
Mg925       O941   2.268       .  S
H927       C1940   1.081       .  S
O928       Mg936   2.140       .  S
H930        C933   1.081       .  S
C932       H1935   1.081       .  S
C932       O1905   1.235       .  S
H934       C1917   1.082       .  S
C938        O943   1.273       .  A
O939        C940   1.269       .  A
O944      Mg1923   2.272       .  S
C945        C946   1.407       .  A
C945        C950   1.403       .  A
C945        H952   1.083       .  S
C946        C947   1.423       .  A
C947        C954   1.509       .  S
C947        C948   1.403       .  A
C948        C949   1.406       .  A
C948        H953   1.082       .  S
C949        C950   1.422       .  A
C950        C951   1.510       .  S
C951        H955   1.111       .  S
C951        H956   1.105       .  S
C951        H957   1.110       .  S
C954        H958   1.106       .  S
C954        H959   1.110       .  S
C954        H960   1.111       .  S
C961        C962   1.407       .  A
C961        C966   1.402       .  A
C961        H968   1.081       .  S
C962        C963   1.423       .  A
C963        C970   1.510       .  S
C963        C964   1.403       .  A
C964        C965   1.406       .  A
C964        H969   1.081       .  S
C965        C966   1.422       .  A
C966        C967   1.510       .  S
C967        H971   1.111       .  S
C967        H972   1.104       .  S
C967        H973   1.110       .  S
C970        H974   1.104       .  S
C970        H975   1.110       .  S
C970        H976   1.111       .  S
C977        C978   1.408       .  A
C977        C982   1.402       .  A
C977        H984   1.081       .  S
C978        C979   1.422       .  A
C979        C986   1.511       .  S
C979        C980   1.401       .  A
C980        C981   1.407       .  A
C980        H985   1.081       .  S
C981        C982   1.421       .  A
C982        C983   1.510       .  S
C983        H987   1.111       .  S
C983        H988   1.110       .  S
C983        H989   1.104       .  S
C986        H990   1.110       .  S
C986        H991   1.104       .  S
C986        H992   1.111       .  S
C993        C994   1.407       .  A
C993        C998   1.401       .  A
C993       H1000   1.081       .  S
C994        C995   1.422       .  A
C995       C1002   1.510       .  S
C995        C996   1.403       .  A
C996        C997   1.407       .  A
C996       H1001   1.080       .  S
C997        C998   1.422       .  A
C998        C999   1.511       .  S
C999       H1003   1.111       .  S
C999       H1004   1.104       .  S
C999       H1005   1.110       .  S
C1002      H1006   1.104       .  S
C1002      H1007   1.110       .  S
C1002      H1008   1.111       .  S
C1009      C1011   1.537   1_554  S
C1009      C1013   1.529   1_554  S
C1009      C1012   1.540   1_554  S
C1009      C1246   1.536       .  S
C1010      C1014   1.554       .  S
C1010      C1016   1.543       .  S
C1010      C1015   1.537       .  S
C1010      C1233   1.531       .  S
C1011      C1019   1.373   1_556  A
C1011      C1266   1.399       .  A
C1012      C1023   1.377   1_556  A
C1012      C1267   1.393       .  A
C1013      C1027   1.370   1_556  A
C1013      C1268   1.392       .  A
C1014      C1263   1.399       .  A
C1014      C1017   1.389       .  A
C1015      C1264   1.393       .  A
C1015      C1021   1.382       .  A
C1016      C1265   1.392       .  A
C1016      C1024   1.386       .  A
C1017      N1018   1.355       .  A
C1017      H1030   1.082       .  S
N1018      C1271   1.352       .  A
N1018      C1142   1.427       .  S
C1019      N1270   1.352   1_554  A
C1019      H1020   1.081       .  S
C1021      N1274   1.355       .  A
C1021      H1031   1.082       .  S
N1022      C1273   1.355       .  A
N1022      C1023   1.353   1_556  A
N1022      C1358   1.426       .  S
C1023      H1029   1.082       .  S
C1024      N1277   1.357       .  A
C1024      H1026   1.081       .  S
N1025      C1276   1.357       .  A
N1025      C1027   1.352   1_556  A
N1025      C1369   1.426       .  S
C1027      H1028   1.083       .  S
C1032      C1034   1.556       .  S
C1032      C1036   1.544       .  S
C1032      C1035   1.537       .  S
C1032      C1249   1.531       .  S
C1033      C1037   1.538       .  S
C1033      C1039   1.526       .  S
C1033      C1038   1.538       .  S
C1033      C1230   1.534       .  S
C1034      C1042   1.389       .  A
C1034      C1037   1.400       .  A
C1035      C1046   1.382       .  A
C1035      C1038   1.393       .  A
C1036      C1050   1.386       .  A
C1036      C1039   1.391       .  A
C1037      C1040   1.374       .  A
C1038      C1044   1.375       .  A
C1039      C1047   1.370       .  A
C1040      N1041   1.352       .  A
C1040      H1053   1.082       .  S
N1041      C1042   1.357       .  A
N1041      C1158   1.429       .  S
C1042      H1043   1.082       .  S
C1044      N1045   1.353       .  A
C1044      H1054   1.082       .  S
N1045      C1046   1.354       .  A
N1045      C1166   1.425       .  S
C1046      H1052   1.082       .  S
C1047      N1048   1.352       .  A
C1047      H1049   1.083       .  S
N1048      C1050   1.357       .  A
N1048      C1192   1.425       .  S
C1050      H1051   1.081       .  S
C1055      C1057   1.536       .  S
C1055      C1059   1.557       .  S
C1055      C1058   1.545       .  S
C1055      C1217   1.531       .  S
C1056      C1060   1.532       .  S
C1056      C1062   1.542       .  S
C1056      C1061   1.526       .  S
C1056      C1198   1.535       .  S
C1057      C1065   1.382       .  A
C1057      C1312   1.391       .  A
C1058      C1069   1.386       .  A
C1058      C1313   1.392       .  A
C1059      C1073   1.389       .  A
C1059      C1314   1.401       .  A
C1060      C1309   1.391       .  A
C1060      C1063   1.371       .  A
C1061      C1310   1.392       .  A
C1061      C1067   1.369       .  A
C1062      C1311   1.401       .  A
C1062      C1070   1.376       .  A
C1063      N1316   1.352       .  A
C1063      H1076   1.082       .  S
N1064      C1315   1.352   1_554  A
N1064      C1065   1.355       .  A
N1064      C1110   1.424       .  S
C1065      H1066   1.082       .  S
C1067      N1320   1.352       .  A
C1067      H1077   1.083       .  S
N1068      C1319   1.352   1_554  A
N1068      C1069   1.358       .  A
N1068      C1118   1.426       .  S
C1069      H1075   1.081       .  S
C1070      N1323   1.353       .  A
C1070      H1072   1.082       .  S
N1071      C1322   1.353   1_554  A
N1071      C1073   1.357       .  A
N1071      C1144   1.430       .  S
C1073      H1074   1.081       .  S
C1078      C1080   1.527       .  S
C1078      C1082   1.540       .  S
C1078      C1081   1.537       .  S
C1078      C1214   1.536       .  S
C1079      C1083   1.549       .  S
C1079      C1085   1.538       .  S
C1079      C1084   1.549       .  S
C1079      C1201   1.530       .  S
C1080      C1088   1.368       .  A
C1080      C1083   1.393       .  A
C1081      C1092   1.373       .  A
C1081      C1084   1.397       .  A
C1082      C1096   1.376       .  A
C1082      C1085   1.394       .  A
C1083      C1086   1.389       .  A
C1084      C1090   1.386       .  A
C1085      C1093   1.382       .  A
C1086      N1087   1.358       .  A
C1086      H1099   1.082       .  S
N1087      C1088   1.351       .  A
N1087      C1190   1.426       .  S
C1088      H1089   1.083       .  S
C1090      N1091   1.355       .  A
C1090      H1100   1.081       .  S
N1091      C1092   1.352       .  A
N1091      C1154   1.426       .  S
C1092      H1098   1.082       .  S
C1093      N1094   1.356       .  A
C1093      H1095   1.082       .  S
N1094      C1096   1.353       .  A
N1094      C1165   1.427       .  S
C1096      H1097   1.082       .  S
O1101     Mg1103   2.152       .  S
O1101     Mg1865   2.169   1_544  S
O1101      C1640   1.235       .  S
C1102      H1141   1.081       .  S
C1102      O1115   1.235       .  S
C1102      O1139   1.268       .  A
Mg1103     O1399   2.307   1_554  S
O1104     Mg1129   2.129       .  S
O1105      C1136   1.269       .  A
O1105     Mg1129   2.296       .  S
C1106      N1274   1.426       .  S
C1106      O1108   1.273       .  A
C1106      O1120   1.274       .  A
O1107      C1135   1.269   1_655  A
O1107     Mg1613   2.296   1_545  S
O1108     Mg1140   2.271       .  S
Mg1109     O1857   2.169       .  S
Mg1109     O1115   2.140       .  S
Mg1109     O1611   2.296       .  S
Mg1109     O1627   2.263       .  S
Mg1109     O1363   2.296       .  S
C1110      O1148   1.273       .  A
C1110      O1116   1.271       .  A
O1111      C1118   1.274       .  A
O1111     Mg1361   2.296   1_554  S
C1113      H1642   1.081       .  S
C1113      O1631   1.235       .  S
C1113      O1128   1.268   1_565  A
O1114      C1137   1.268       .  A
O1115     Mg1381   2.175       .  S
O1116     Mg1398   2.273   1_554  S
C1117      N1277   1.426       .  S
C1117      O1130   1.270       .  A
C1117      O1122   1.274       .  A
C1118      O1145   1.270       .  A
Mg1119     O1126   2.145       .  S
Mg1119     O1883   2.169   1_544  S
Mg1119     O1372   2.290   1_554  S
Mg1119     O1625   2.288   1_545  S
Mg1119     O1652   2.275   1_545  S
O1120     Mg1371   2.290       .  S
O1121      C1125   1.267       .  A
O1121     Mg1623   2.288       .  S
O1122     Mg1381   2.296       .  S
O1123      C1142   1.271       .  A
O1123     Mg1613   2.263   1_545  S
O1124      C1144   1.275       .  A
O1124     Mg1392   2.303   1_554  S
O1126     Mg1392   2.173   1_554  S
O1126      C1137   1.235       .  S
O1127     Mg1875   2.169       .  S
O1127     Mg1146   2.134       .  S
O1127      C1617   1.235       .  S
O1128     Mg1140   2.289       .  S
Mg1129     O1367   2.175   1_554  S
Mg1129     O1374   2.296   1_554  S
Mg1129     O1145   2.262       .  S
H1131      C1640   1.081       .  S
O1132     Mg1140   2.147       .  S
H1134      C1137   1.081       .  S
C1136      H1635   1.081       .  S
C1136      O1605   1.235       .  S
H1138      C1617   1.081       .  S
Mg1140     O1378   2.173       .  S
Mg1140     O1376   2.303       .  S
C1142      O1147   1.276       .  A
O1143      C1144   1.274       .  A
Mg1146     O1368   2.273       .  S
O1147     Mg1355   2.307       .  S
O1148     Mg1623   2.275       .  S
O1149     Mg1151   2.131       .  S
C1150      H1189   1.081       .  S
C1150      O1163   1.235       .  S
C1150      O1187   1.268       .  A
Mg1151     O1684   2.171       .  S
Mg1151     O1195   2.289       .  S
Mg1151     O1695   2.255       .  S
Mg1151     O1666   2.294       .  S
O1152     Mg1698   2.171       .  S
O1152     Mg1177   2.143       .  S
O1152      C1677   1.235       .  S
O1153      C1184   1.268   1_655  A
O1153     Mg1177   2.288       .  S
C1154      O1156   1.272       .  A
C1154      O1168   1.274       .  A
O1155      C1183   1.268       .  A
O1156     Mg1188   2.269       .  S
Mg1157     O1163   2.139       .  S
Mg1157     O1159   2.286       .  S
C1158      O1196   1.272       .  A
C1158      O1164   1.276       .  A
O1159      C1166   1.273       .  A
H1160      C1677   1.081       .  S
C1161      O1176   1.269       .  A
O1162      C1185   1.269       .  A
O1162     Mg1655   2.294   1_545  S
O1163     Mg1177   2.170       .  S
O1164     Mg1194   2.306       .  S
C1165      O1178   1.273       .  A
C1165      O1170   1.273       .  A
C1166      O1193   1.272       .  A
Mg1167     O1174   2.150       .  S
Mg1167     O1168   2.297       .  S
O1169      C1173   1.268   1_545  A
O1170     Mg1177   2.290       .  S
O1171      C1190   1.271       .  A
O1172      C1192   1.275       .  A
O1172     Mg1188   2.301       .  S
C1173      H1664   1.081       .  S
C1173      O1656   1.235       .  S
O1174     Mg1188   2.169       .  S
O1174      C1185   1.235       .  S
O1175     Mg1194   2.147       .  S
O1176     Mg1188   2.297       .  S
Mg1177     O1193   2.268       .  S
O1178     Mg1698   2.275       .  S
O1180     Mg1655   2.171   1_545  S
O1180     Mg1188   2.140       .  S
O1180      C1687   1.235   1_545  S
H1181      C1687   1.081   1_545  S
H1182      C1185   1.081       .  S
C1183      H1685   1.081       .  S
C1183      O1684   1.235       .  S
O1187     Mg1698   2.291       .  S
C1190      O1195   1.273       .  A
O1191      C1192   1.269       .  A
O1191     Mg1655   2.255   1_545  S
Mg1194     O1656   2.171   1_545  S
Mg1194     O1682   2.275   1_545  S
Mg1194     O1691   2.291   1_545  S
C1197      C1198   1.407       .  A
C1197      C1202   1.403       .  A
C1197      H1204   1.083       .  S
C1198      C1199   1.423       .  A
C1199      C1206   1.509       .  S
C1199      C1200   1.403       .  A
C1200      C1201   1.406       .  A
C1200      H1205   1.082       .  S
C1201      C1202   1.422       .  A
C1202      C1203   1.510       .  S
C1203      H1207   1.111       .  S
C1203      H1208   1.105       .  S
C1203      H1209   1.110       .  S
C1206      H1210   1.106       .  S
C1206      H1211   1.110       .  S
C1206      H1212   1.111       .  S
C1213      C1214   1.407       .  A
C1213      C1218   1.402       .  A
C1213      H1220   1.081       .  S
C1214      C1215   1.423       .  A
C1215      C1222   1.510       .  S
C1215      C1216   1.403       .  A
C1216      C1217   1.406       .  A
C1216      H1221   1.081       .  S
C1217      C1218   1.422       .  A
C1218      C1219   1.510       .  S
C1219      H1223   1.111       .  S
C1219      H1224   1.104       .  S
C1219      H1225   1.110       .  S
C1222      H1226   1.104       .  S
C1222      H1227   1.110       .  S
C1222      H1228   1.111       .  S
C1229      C1230   1.408       .  A
C1229      C1234   1.402       .  A
C1229      H1236   1.081       .  S
C1230      C1231   1.422       .  A
C1231      C1238   1.511       .  S
C1231      C1232   1.401       .  A
C1232      C1233   1.407       .  A
C1232      H1237   1.081       .  S
C1233      C1234   1.421       .  A
C1234      C1235   1.510       .  S
C1235      H1239   1.111       .  S
C1235      H1240   1.110       .  S
C1235      H1241   1.104       .  S
C1238      H1242   1.110       .  S
C1238      H1243   1.104       .  S
C1238      H1244   1.111       .  S
C1245      C1246   1.407       .  A
C1245      C1250   1.401       .  A
C1245      H1252   1.081       .  S
C1246      C1247   1.422       .  A
C1247      C1254   1.510       .  S
C1247      C1248   1.403       .  A
C1248      C1249   1.407       .  A
C1248      H1253   1.080       .  S
C1249      C1250   1.422       .  A
C1250      C1251   1.511       .  S
C1251      H1255   1.111       .  S
C1251      H1256   1.104       .  S
C1251      H1257   1.110       .  S
C1254      H1258   1.104       .  S
C1254      H1259   1.110       .  S
C1254      H1260   1.111       .  S
C1261      C1263   1.537       .  S
C1261      C1265   1.529       .  S
C1261      C1264   1.540       .  S
C1261      C1498   1.536       .  S
C1262      C1266   1.554       .  S
C1262      C1268   1.543       .  S
C1262      C1267   1.537       .  S
C1262      C1485   1.531       .  S
C1263      C1271   1.373       .  A
C1264      C1275   1.377       .  A
C1265      C1279   1.370       .  A
C1266      C1269   1.389       .  A
C1267      C1273   1.382       .  A
C1268      C1276   1.386       .  A
C1269      N1270   1.355       .  A
C1269      H1282   1.082       .  S
N1270      C1394   1.427       .  S
C1271      H1272   1.081       .  S
C1273      H1283   1.082       .  S
N1274      C1275   1.353       .  A
C1275      H1281   1.082       .  S
C1276      H1278   1.081       .  S
N1277      C1279   1.352       .  A
C1279      H1280   1.083       .  S
C1284      C1286   1.556       .  S
C1284      C1288   1.544       .  S
C1284      C1287   1.537       .  S
C1284      C1501   1.531       .  S
C1285      C1289   1.538       .  S
C1285      C1291   1.526       .  S
C1285      C1290   1.538       .  S
C1285      C1482   1.534       .  S
C1286      C1294   1.389       .  A
C1286      C1289   1.400       .  A
C1287      C1298   1.382       .  A
C1287      C1290   1.393       .  A
C1288      C1302   1.386       .  A
C1288      C1291   1.391       .  A
C1289      C1292   1.374       .  A
C1290      C1296   1.375       .  A
C1291      C1299   1.370       .  A
C1292      N1293   1.352       .  A
C1292      H1305   1.082       .  S
N1293      C1294   1.357       .  A
N1293      C1410   1.429       .  S
C1294      H1295   1.082       .  S
C1296      N1297   1.353       .  A
C1296      H1306   1.082       .  S
N1297      C1298   1.354       .  A
N1297      C1418   1.425       .  S
C1298      H1304   1.082       .  S
C1299      N1300   1.352       .  A
C1299      H1301   1.083       .  S
N1300      C1302   1.357       .  A
N1300      C1444   1.425       .  S
C1302      H1303   1.081       .  S
C1307      C1309   1.536       .  S
C1307      C1311   1.557       .  S
C1307      C1310   1.545       .  S
C1307      C1469   1.531       .  S
C1308      C1312   1.532   1_556  S
C1308      C1314   1.542   1_556  S
C1308      C1313   1.526   1_556  S
C1308      C1450   1.535       .  S
C1309      C1317   1.382       .  A
C1310      C1321   1.386       .  A
C1311      C1325   1.389       .  A
C1312      C1315   1.371   1_554  A
C1313      C1319   1.369   1_554  A
C1314      C1322   1.376   1_554  A
C1315      H1328   1.082       .  S
N1316      C1317   1.355       .  A
N1316      C1362   1.424       .  S
C1317      H1318   1.082       .  S
C1319      H1329   1.083       .  S
N1320      C1321   1.358       .  A
N1320      C1370   1.426       .  S
C1321      H1327   1.081       .  S
C1322      H1324   1.082       .  S
N1323      C1325   1.357       .  A
N1323      C1396   1.430       .  S
C1325      H1326   1.081       .  S
C1330      C1332   1.527       .  S
C1330      C1334   1.540       .  S
C1330      C1333   1.537       .  S
C1330      C1466   1.536       .  S
C1331      C1335   1.549       .  S
C1331      C1337   1.538       .  S
C1331      C1336   1.549       .  S
C1331      C1453   1.530       .  S
C1332      C1340   1.368       .  A
C1332      C1335   1.393       .  A
C1333      C1344   1.373       .  A
C1333      C1336   1.397       .  A
C1334      C1348   1.376       .  A
C1334      C1337   1.394       .  A
C1335      C1338   1.389       .  A
C1336      C1342   1.386       .  A
C1337      C1345   1.382       .  A
C1338      N1339   1.358       .  A
C1338      H1351   1.082       .  S
N1339      C1340   1.351       .  A
N1339      C1442   1.426       .  S
C1340      H1341   1.083       .  S
C1342      N1343   1.355       .  A
C1342      H1352   1.081       .  S
N1343      C1344   1.352       .  A
N1343      C1406   1.426       .  S
C1344      H1350   1.082       .  S
C1345      N1346   1.356       .  A
C1345      H1347   1.082       .  S
N1346      C1348   1.353       .  A
N1346      C1417   1.427       .  S
C1348      H1349   1.082       .  S
O1353     Mg1355   2.152       .  S
O1353     Mg1613   2.169   1_545  S
O1353      C1892   1.235       .  S
C1354      H1393   1.081       .  S
C1354      O1367   1.235       .  S
C1354      O1391   1.268       .  A
O1356     Mg1381   2.129       .  S
O1357      C1388   1.269       .  A
O1357     Mg1381   2.296       .  S
C1358      O1360   1.273       .  A
C1358      O1372   1.274       .  A
O1359      C1387   1.269   1_655  A
O1359     Mg1865   2.296   1_545  S
O1360     Mg1392   2.271       .  S
Mg1361     O1605   2.169   1_556  S
Mg1361     O1367   2.140       .  S
Mg1361     O1863   2.296       .  S
Mg1361     O1879   2.263       .  S
C1362      O1400   1.273       .  A
C1362      O1368   1.271       .  A
O1363      C1370   1.274       .  A
C1365      H1894   1.081       .  S
C1365      O1883   1.235       .  S
C1365      O1380   1.268   1_565  A
O1366      C1389   1.268       .  A
C1369      O1382   1.270       .  A
C1369      O1374   1.274       .  A
C1370      O1397   1.270       .  A
Mg1371     O1378   2.145       .  S
Mg1371     O1631   2.169   1_545  S
Mg1371     O1877   2.288   1_545  S
Mg1371     O1904   2.275   1_545  S
O1373      C1377   1.267       .  A
O1373     Mg1875   2.288       .  S
O1375      C1394   1.271       .  A
O1375     Mg1865   2.263   1_545  S
O1376      C1396   1.275       .  A
O1378      C1389   1.235       .  S
O1379     Mg1623   2.169   1_556  S
O1379     Mg1398   2.134       .  S
O1379      C1869   1.235       .  S
O1380     Mg1392   2.289       .  S
Mg1381     O1397   2.262       .  S
H1383      C1892   1.081       .  S
O1384     Mg1392   2.147       .  S
H1386      C1389   1.081       .  S
C1388      H1887   1.081       .  S
C1388      O1857   1.235       .  S
H1390      C1869   1.081       .  S
C1394      O1399   1.276       .  A
O1395      C1396   1.274       .  A
O1400     Mg1875   2.275       .  S
O1401     Mg1403   2.131       .  S
C1402      H1441   1.081       .  S
C1402      O1415   1.235       .  S
C1402      O1439   1.268       .  A
Mg1403     O1936   2.171       .  S
Mg1403     O1447   2.289       .  S
Mg1403     O1947   2.255       .  S
Mg1403     O1918   2.294       .  S
O1404     Mg1950   2.171       .  S
O1404     Mg1429   2.143       .  S
O1404      C1929   1.235       .  S
O1405      C1436   1.268   1_655  A
O1405     Mg1429   2.288       .  S
C1406      O1408   1.272       .  A
C1406      O1420   1.274       .  A
O1407      C1435   1.268       .  A
O1408     Mg1440   2.269       .  S
Mg1409     O1415   2.139       .  S
Mg1409     O1411   2.286       .  S
C1410      O1448   1.272       .  A
C1410      O1416   1.276       .  A
O1411      C1418   1.273       .  A
H1412      C1929   1.081       .  S
C1413      O1428   1.269       .  A
O1414      C1437   1.269       .  A
O1414     Mg1907   2.294   1_545  S
O1415     Mg1429   2.170       .  S
O1416     Mg1446   2.306       .  S
C1417      O1430   1.273       .  A
C1417      O1422   1.273       .  A
C1418      O1445   1.272       .  A
Mg1419     O1426   2.150       .  S
Mg1419     O1420   2.297       .  S
O1421      C1425   1.268   1_545  A
O1422     Mg1429   2.290       .  S
O1423      C1442   1.271       .  A
O1424      C1444   1.275       .  A
O1424     Mg1440   2.301       .  S
C1425      H1916   1.081       .  S
C1425      O1908   1.235       .  S
O1426     Mg1440   2.169       .  S
O1426      C1437   1.235       .  S
O1427     Mg1446   2.147       .  S
O1428     Mg1440   2.297       .  S
Mg1429     O1445   2.268       .  S
O1430     Mg1950   2.275       .  S
O1432     Mg1907   2.171   1_545  S
O1432     Mg1440   2.140       .  S
O1432      C1939   1.235   1_545  S
H1433      C1939   1.081   1_545  S
H1434      C1437   1.081       .  S
C1435      H1937   1.081       .  S
C1435      O1936   1.235       .  S
O1439     Mg1950   2.291       .  S
C1442      O1447   1.273       .  A
O1443      C1444   1.269       .  A
O1443     Mg1907   2.255   1_545  S
Mg1446     O1908   2.171   1_545  S
Mg1446     O1934   2.275   1_545  S
Mg1446     O1943   2.291   1_545  S
C1449      C1450   1.407       .  A
C1449      C1454   1.403       .  A
C1449      H1456   1.083       .  S
C1450      C1451   1.423       .  A
C1451      C1458   1.509       .  S
C1451      C1452   1.403       .  A
C1452      C1453   1.406       .  A
C1452      H1457   1.082       .  S
C1453      C1454   1.422       .  A
C1454      C1455   1.510       .  S
C1455      H1459   1.111       .  S
C1455      H1460   1.105       .  S
C1455      H1461   1.110       .  S
C1458      H1462   1.106       .  S
C1458      H1463   1.110       .  S
C1458      H1464   1.111       .  S
C1465      C1466   1.407       .  A
C1465      C1470   1.402       .  A
C1465      H1472   1.081       .  S
C1466      C1467   1.423       .  A
C1467      C1474   1.510       .  S
C1467      C1468   1.403       .  A
C1468      C1469   1.406       .  A
C1468      H1473   1.081       .  S
C1469      C1470   1.422       .  A
C1470      C1471   1.510       .  S
C1471      H1475   1.111       .  S
C1471      H1476   1.104       .  S
C1471      H1477   1.110       .  S
C1474      H1478   1.104       .  S
C1474      H1479   1.110       .  S
C1474      H1480   1.111       .  S
C1481      C1482   1.408       .  A
C1481      C1486   1.402       .  A
C1481      H1488   1.081       .  S
C1482      C1483   1.422       .  A
C1483      C1490   1.511       .  S
C1483      C1484   1.401       .  A
C1484      C1485   1.407       .  A
C1484      H1489   1.081       .  S
C1485      C1486   1.421       .  A
C1486      C1487   1.510       .  S
C1487      H1491   1.111       .  S
C1487      H1492   1.110       .  S
C1487      H1493   1.104       .  S
C1490      H1494   1.110       .  S
C1490      H1495   1.104       .  S
C1490      H1496   1.111       .  S
C1497      C1498   1.407       .  A
C1497      C1502   1.401       .  A
C1497      H1504   1.081       .  S
C1498      C1499   1.422       .  A
C1499      C1506   1.510       .  S
C1499      C1500   1.403       .  A
C1500      C1501   1.407       .  A
C1500      H1505   1.080       .  S
C1501      C1502   1.422       .  A
C1502      C1503   1.511       .  S
C1503      H1507   1.111       .  S
C1503      H1508   1.104       .  S
C1503      H1509   1.110       .  S
C1506      H1510   1.104       .  S
C1506      H1511   1.110       .  S
C1506      H1512   1.111       .  S
C1513      C1515   1.537   1_554  S
C1513      C1517   1.529   1_554  S
C1513      C1516   1.540   1_554  S
C1513      C1750   1.536       .  S
C1514      C1518   1.554       .  S
C1514      C1520   1.543       .  S
C1514      C1519   1.537       .  S
C1514      C1737   1.531       .  S
C1515      C1523   1.373   1_556  A
C1515      C1770   1.399       .  A
C1516      C1527   1.377   1_556  A
C1516      C1771   1.393       .  A
C1517      C1531   1.370   1_556  A
C1517      C1772   1.392       .  A
C1518      C1767   1.399       .  A
C1518      C1521   1.389       .  A
C1519      C1768   1.393       .  A
C1519      C1525   1.382       .  A
C1520      C1769   1.392       .  A
C1520      C1528   1.386       .  A
C1521      N1522   1.355       .  A
C1521      H1534   1.082       .  S
N1522      C1775   1.352       .  A
N1522      C1646   1.427       .  S
C1523      N1774   1.352   1_554  A
C1523      H1524   1.081       .  S
C1525      N1778   1.355       .  A
C1525      H1535   1.082       .  S
N1526      C1777   1.355       .  A
N1526      C1527   1.353   1_556  A
N1526      C1862   1.426       .  S
C1527      H1533   1.082       .  S
C1528      N1781   1.357       .  A
C1528      H1530   1.081       .  S
N1529      C1780   1.357       .  A
N1529      C1531   1.352   1_556  A
N1529      C1873   1.426       .  S
C1531      H1532   1.083       .  S
C1536      C1538   1.556       .  S
C1536      C1540   1.544       .  S
C1536      C1539   1.537       .  S
C1536      C1753   1.531       .  S
C1537      C1541   1.538       .  S
C1537      C1543   1.526       .  S
C1537      C1542   1.538       .  S
C1537      C1734   1.534       .  S
C1538      C1546   1.389       .  A
C1538      C1541   1.400       .  A
C1539      C1550   1.382       .  A
C1539      C1542   1.393       .  A
C1540      C1554   1.386       .  A
C1540      C1543   1.391       .  A
C1541      C1544   1.374       .  A
C1542      C1548   1.375       .  A
C1543      C1551   1.370       .  A
C1544      N1545   1.352       .  A
C1544      H1557   1.082       .  S
N1545      C1546   1.357       .  A
N1545      C1662   1.429       .  S
C1546      H1547   1.082       .  S
C1548      N1549   1.353       .  A
C1548      H1558   1.082       .  S
N1549      C1550   1.354       .  A
N1549      C1670   1.425       .  S
C1550      H1556   1.082       .  S
C1551      N1552   1.352       .  A
C1551      H1553   1.083       .  S
N1552      C1554   1.357       .  A
N1552      C1696   1.425       .  S
C1554      H1555   1.081       .  S
C1559      C1561   1.536       .  S
C1559      C1563   1.557       .  S
C1559      C1562   1.545       .  S
C1559      C1721   1.531       .  S
C1560      C1564   1.532       .  S
C1560      C1566   1.542       .  S
C1560      C1565   1.526       .  S
C1560      C1702   1.535       .  S
C1561      C1569   1.382       .  A
C1561      C1816   1.391       .  A
C1562      C1573   1.386       .  A
C1562      C1817   1.392       .  A
C1563      C1577   1.389       .  A
C1563      C1818   1.401       .  A
C1564      C1813   1.391       .  A
C1564      C1567   1.371       .  A
C1565      C1814   1.392       .  A
C1565      C1571   1.369       .  A
C1566      C1815   1.401       .  A
C1566      C1574   1.376       .  A
C1567      N1820   1.352       .  A
C1567      H1580   1.082       .  S
N1568      C1819   1.352   1_554  A
N1568      C1569   1.355       .  A
N1568      C1614   1.424       .  S
C1569      H1570   1.082       .  S
C1571      N1824   1.352       .  A
C1571      H1581   1.083       .  S
N1572      C1823   1.352   1_554  A
N1572      C1573   1.358       .  A
N1572      C1622   1.426       .  S
C1573      H1579   1.081       .  S
C1574      N1827   1.353       .  A
C1574      H1576   1.082       .  S
N1575      C1826   1.353   1_554  A
N1575      C1577   1.357       .  A
N1575      C1648   1.430       .  S
C1577      H1578   1.081       .  S
C1582      C1584   1.527       .  S
C1582      C1586   1.540       .  S
C1582      C1585   1.537       .  S
C1582      C1718   1.536       .  S
C1583      C1587   1.549       .  S
C1583      C1589   1.538       .  S
C1583      C1588   1.549       .  S
C1583      C1705   1.530       .  S
C1584      C1592   1.368       .  A
C1584      C1587   1.393       .  A
C1585      C1596   1.373       .  A
C1585      C1588   1.397       .  A
C1586      C1600   1.376       .  A
C1586      C1589   1.394       .  A
C1587      C1590   1.389       .  A
C1588      C1594   1.386       .  A
C1589      C1597   1.382       .  A
C1590      N1591   1.358       .  A
C1590      H1603   1.082       .  S
N1591      C1592   1.351       .  A
N1591      C1694   1.426       .  S
C1592      H1593   1.083       .  S
C1594      N1595   1.355       .  A
C1594      H1604   1.081       .  S
N1595      C1596   1.352       .  A
N1595      C1658   1.426       .  S
C1596      H1602   1.082       .  S
C1597      N1598   1.356       .  A
C1597      H1599   1.082       .  S
N1598      C1600   1.353       .  A
N1598      C1669   1.427       .  S
C1600      H1601   1.082       .  S
O1605     Mg1607   2.152       .  S
C1606      H1645   1.081       .  S
C1606      O1619   1.235       .  S
C1606      O1643   1.268       .  A
Mg1607     O1903   2.307   1_554  S
O1608     Mg1633   2.129       .  S
O1609      C1640   1.269   1_565  A
O1609     Mg1633   2.296       .  S
C1610      N1778   1.426       .  S
C1610      O1612   1.273       .  A
C1610      O1624   1.274       .  A
O1611      C1639   1.269   1_655  A
O1612     Mg1644   2.271       .  S
Mg1613     O1619   2.140       .  S
Mg1613     O1867   2.296       .  S
C1614      O1652   1.273       .  A
C1614      O1620   1.271       .  A
O1615      C1622   1.274       .  A
O1615     Mg1865   2.296   1_554  S
C1617      O1632   1.268       .  A
O1618      C1641   1.268       .  A
O1619     Mg1885   2.175       .  S
O1620     Mg1902   2.273   1_554  S
C1621      N1781   1.426       .  S
C1621      O1634   1.270       .  A
C1621      O1626   1.274       .  A
C1622      O1649   1.270       .  A
Mg1623     O1630   2.145       .  S
Mg1623     O1876   2.290   1_554  S
O1624     Mg1875   2.290       .  S
O1625      C1629   1.267       .  A
O1626     Mg1885   2.296       .  S
O1627      C1646   1.271       .  A
O1628      C1648   1.275       .  A
O1628     Mg1896   2.303   1_554  S
O1630     Mg1896   2.173   1_554  S
O1630      C1641   1.235       .  S
O1631     Mg1650   2.134       .  S
O1632     Mg1644   2.289       .  S
Mg1633     O1871   2.175   1_554  S
Mg1633     O1878   2.296   1_554  S
Mg1633     O1649   2.262       .  S
O1636     Mg1644   2.147       .  S
H1638      C1641   1.081       .  S
Mg1644     O1882   2.173       .  S
Mg1644     O1880   2.303       .  S
C1646      O1651   1.276       .  A
O1647      C1648   1.274       .  A
Mg1650     O1872   2.273       .  S
O1651     Mg1859   2.307       .  S
O1653     Mg1655   2.131       .  S
C1654      H1693   1.081       .  S
C1654      O1667   1.235       .  S
C1654      O1691   1.268       .  A
Mg1655     O1699   2.289       .  S
O1656     Mg1681   2.143       .  S
O1657      C1688   1.268   1_655  A
O1657     Mg1681   2.288       .  S
C1658      O1660   1.272       .  A
C1658      O1672   1.274       .  A
O1659      C1687   1.268       .  A
O1660     Mg1692   2.269       .  S
Mg1661     O1667   2.139       .  S
Mg1661     O1663   2.286       .  S
C1662      O1700   1.272       .  A
C1662      O1668   1.276       .  A
O1663      C1670   1.273       .  A
C1665      O1680   1.269       .  A
O1666      C1689   1.269       .  A
O1667     Mg1681   2.170       .  S
O1668     Mg1698   2.306       .  S
C1669      O1682   1.273       .  A
C1669      O1674   1.273       .  A
C1670      O1697   1.272       .  A
Mg1671     O1678   2.150       .  S
Mg1671     O1672   2.297       .  S
O1673      C1677   1.268       .  A
O1674     Mg1681   2.290       .  S
O1675      C1694   1.271       .  A
O1676      C1696   1.275       .  A
O1676     Mg1692   2.301       .  S
O1678     Mg1692   2.169       .  S
O1678      C1689   1.235       .  S
O1679     Mg1698   2.147       .  S
O1680     Mg1692   2.297       .  S
Mg1681     O1697   2.268       .  S
O1684     Mg1692   2.140       .  S
H1686      C1689   1.081       .  S
C1694      O1699   1.273       .  A
O1695      C1696   1.269       .  A
C1701      C1702   1.407       .  A
C1701      C1706   1.403       .  A
C1701      H1708   1.083       .  S
C1702      C1703   1.423       .  A
C1703      C1710   1.509       .  S
C1703      C1704   1.403       .  A
C1704      C1705   1.406       .  A
C1704      H1709   1.082       .  S
C1705      C1706   1.422       .  A
C1706      C1707   1.510       .  S
C1707      H1711   1.111       .  S
C1707      H1712   1.105       .  S
C1707      H1713   1.110       .  S
C1710      H1714   1.106       .  S
C1710      H1715   1.110       .  S
C1710      H1716   1.111       .  S
C1717      C1718   1.407       .  A
C1717      C1722   1.402       .  A
C1717      H1724   1.081       .  S
C1718      C1719   1.423       .  A
C1719      C1726   1.510       .  S
C1719      C1720   1.403       .  A
C1720      C1721   1.406       .  A
C1720      H1725   1.081       .  S
C1721      C1722   1.422       .  A
C1722      C1723   1.510       .  S
C1723      H1727   1.111       .  S
C1723      H1728   1.104       .  S
C1723      H1729   1.110       .  S
C1726      H1730   1.104       .  S
C1726      H1731   1.110       .  S
C1726      H1732   1.111       .  S
C1733      C1734   1.408       .  A
C1733      C1738   1.402       .  A
C1733      H1740   1.081       .  S
C1734      C1735   1.422       .  A
C1735      C1742   1.511       .  S
C1735      C1736   1.401       .  A
C1736      C1737   1.407       .  A
C1736      H1741   1.081       .  S
C1737      C1738   1.421       .  A
C1738      C1739   1.510       .  S
C1739      H1743   1.111       .  S
C1739      H1744   1.110       .  S
C1739      H1745   1.104       .  S
C1742      H1746   1.110       .  S
C1742      H1747   1.104       .  S
C1742      H1748   1.111       .  S
C1749      C1750   1.407       .  A
C1749      C1754   1.401       .  A
C1749      H1756   1.081       .  S
C1750      C1751   1.422       .  A
C1751      C1758   1.510       .  S
C1751      C1752   1.403       .  A
C1752      C1753   1.407       .  A
C1752      H1757   1.080       .  S
C1753      C1754   1.422       .  A
C1754      C1755   1.511       .  S
C1755      H1759   1.111       .  S
C1755      H1760   1.104       .  S
C1755      H1761   1.110       .  S
C1758      H1762   1.104       .  S
C1758      H1763   1.110       .  S
C1758      H1764   1.111       .  S
C1765      C1767   1.537       .  S
C1765      C1769   1.529       .  S
C1765      C1768   1.540       .  S
C1765      C2002   1.536       .  S
C1766      C1770   1.554       .  S
C1766      C1772   1.543       .  S
C1766      C1771   1.537       .  S
C1766      C1989   1.531       .  S
C1767      C1775   1.373       .  A
C1768      C1779   1.377       .  A
C1769      C1783   1.370       .  A
C1770      C1773   1.389       .  A
C1771      C1777   1.382       .  A
C1772      C1780   1.386       .  A
C1773      N1774   1.355       .  A
C1773      H1786   1.082       .  S
N1774      C1898   1.427       .  S
C1775      H1776   1.081       .  S
C1777      H1787   1.082       .  S
N1778      C1779   1.353       .  A
C1779      H1785   1.082       .  S
C1780      H1782   1.081       .  S
N1781      C1783   1.352       .  A
C1783      H1784   1.083       .  S
C1788      C1790   1.556       .  S
C1788      C1792   1.544       .  S
C1788      C1791   1.537       .  S
C1788      C2005   1.531       .  S
C1789      C1793   1.538       .  S
C1789      C1795   1.526       .  S
C1789      C1794   1.538       .  S
C1789      C1986   1.534       .  S
C1790      C1798   1.389       .  A
C1790      C1793   1.400       .  A
C1791      C1802   1.382       .  A
C1791      C1794   1.393       .  A
C1792      C1806   1.386       .  A
C1792      C1795   1.391       .  A
C1793      C1796   1.374       .  A
C1794      C1800   1.375       .  A
C1795      C1803   1.370       .  A
C1796      N1797   1.352       .  A
C1796      H1809   1.082       .  S
N1797      C1798   1.357       .  A
N1797      C1914   1.429       .  S
C1798      H1799   1.082       .  S
C1800      N1801   1.353       .  A
C1800      H1810   1.082       .  S
N1801      C1802   1.354       .  A
N1801      C1922   1.425       .  S
C1802      H1808   1.082       .  S
C1803      N1804   1.352       .  A
C1803      H1805   1.083       .  S
N1804      C1806   1.357       .  A
N1804      C1948   1.425       .  S
C1806      H1807   1.081       .  S
C1811      C1813   1.536       .  S
C1811      C1815   1.557       .  S
C1811      C1814   1.545       .  S
C1811      C1973   1.531       .  S
C1812      C1816   1.532   1_556  S
C1812      C1818   1.542   1_556  S
C1812      C1817   1.526   1_556  S
C1812      C1954   1.535       .  S
C1813      C1821   1.382       .  A
C1814      C1825   1.386       .  A
C1815      C1829   1.389       .  A
C1816      C1819   1.371   1_554  A
C1817      C1823   1.369   1_554  A
C1818      C1826   1.376   1_554  A
C1819      H1832   1.082       .  S
N1820      C1821   1.355       .  A
N1820      C1866   1.424       .  S
C1821      H1822   1.082       .  S
C1823      H1833   1.083       .  S
N1824      C1825   1.358       .  A
N1824      C1874   1.426       .  S
C1825      H1831   1.081       .  S
C1826      H1828   1.082       .  S
N1827      C1829   1.357       .  A
N1827      C1900   1.430       .  S
C1829      H1830   1.081       .  S
C1834      C1836   1.527       .  S
C1834      C1838   1.540       .  S
C1834      C1837   1.537       .  S
C1834      C1970   1.536       .  S
C1835      C1839   1.549       .  S
C1835      C1841   1.538       .  S
C1835      C1840   1.549       .  S
C1835      C1957   1.530       .  S
C1836      C1844   1.368       .  A
C1836      C1839   1.393       .  A
C1837      C1848   1.373       .  A
C1837      C1840   1.397       .  A
C1838      C1852   1.376       .  A
C1838      C1841   1.394       .  A
C1839      C1842   1.389       .  A
C1840      C1846   1.386       .  A
C1841      C1849   1.382       .  A
C1842      N1843   1.358       .  A
C1842      H1855   1.082       .  S
N1843      C1844   1.351       .  A
N1843      C1946   1.426       .  S
C1844      H1845   1.083       .  S
C1846      N1847   1.355       .  A
C1846      H1856   1.081       .  S
N1847      C1848   1.352       .  A
N1847      C1910   1.426       .  S
C1848      H1854   1.082       .  S
C1849      N1850   1.356       .  A
C1849      H1851   1.082       .  S
N1850      C1852   1.353       .  A
N1850      C1921   1.427       .  S
C1852      H1853   1.082       .  S
O1857     Mg1859   2.152       .  S
C1858      H1897   1.081       .  S
C1858      O1871   1.235       .  S
C1858      O1895   1.268       .  A
O1860     Mg1885   2.129       .  S
O1861      C1892   1.269   1_565  A
O1861     Mg1885   2.296       .  S
C1862      O1864   1.273       .  A
C1862      O1876   1.274       .  A
O1863      C1891   1.269   1_655  A
O1864     Mg1896   2.271       .  S
Mg1865     O1871   2.140       .  S
C1866      O1904   1.273       .  A
C1866      O1872   1.271       .  A
O1867      C1874   1.274       .  A
C1869      O1884   1.268       .  A
O1870      C1893   1.268       .  A
C1873      O1886   1.270       .  A
C1873      O1878   1.274       .  A
C1874      O1901   1.270       .  A
Mg1875     O1882   2.145       .  S
O1877      C1881   1.267       .  A
O1879      C1898   1.271       .  A
O1880      C1900   1.275       .  A
O1882      C1893   1.235       .  S
O1883     Mg1902   2.134       .  S
O1884     Mg1896   2.289       .  S
Mg1885     O1901   2.262       .  S
O1888     Mg1896   2.147       .  S
H1890      C1893   1.081       .  S
C1898      O1903   1.276       .  A
O1899      C1900   1.274       .  A
O1905     Mg1907   2.131       .  S
C1906      H1945   1.081       .  S
C1906      O1919   1.235       .  S
C1906      O1943   1.268       .  A
Mg1907     O1951   2.289       .  S
O1908     Mg1933   2.143       .  S
O1909      C1940   1.268   1_655  A
O1909     Mg1933   2.288       .  S
C1910      O1912   1.272       .  A
C1910      O1924   1.274       .  A
O1911      C1939   1.268       .  A
O1912     Mg1944   2.269       .  S
Mg1913     O1919   2.139       .  S
Mg1913     O1915   2.286       .  S
C1914      O1952   1.272       .  A
C1914      O1920   1.276       .  A
O1915      C1922   1.273       .  A
C1917      O1932   1.269       .  A
O1918      C1941   1.269       .  A
O1919     Mg1933   2.170       .  S
O1920     Mg1950   2.306       .  S
C1921      O1934   1.273       .  A
C1921      O1926   1.273       .  A
C1922      O1949   1.272       .  A
Mg1923     O1930   2.150       .  S
Mg1923     O1924   2.297       .  S
O1925      C1929   1.268       .  A
O1926     Mg1933   2.290       .  S
O1927      C1946   1.271       .  A
O1928      C1948   1.275       .  A
O1928     Mg1944   2.301       .  S
O1930     Mg1944   2.169       .  S
O1930      C1941   1.235       .  S
O1931     Mg1950   2.147       .  S
O1932     Mg1944   2.297       .  S
Mg1933     O1949   2.268       .  S
O1936     Mg1944   2.140       .  S
H1938      C1941   1.081       .  S
C1946      O1951   1.273       .  A
O1947      C1948   1.269       .  A
C1953      C1954   1.407       .  A
C1953      C1958   1.403       .  A
C1953      H1960   1.083       .  S
C1954      C1955   1.423       .  A
C1955      C1962   1.509       .  S
C1955      C1956   1.403       .  A
C1956      C1957   1.406       .  A
C1956      H1961   1.082       .  S
C1957      C1958   1.422       .  A
C1958      C1959   1.510       .  S
C1959      H1963   1.111       .  S
C1959      H1964   1.105       .  S
C1959      H1965   1.110       .  S
C1962      H1966   1.106       .  S
C1962      H1967   1.110       .  S
C1962      H1968   1.111       .  S
C1969      C1970   1.407       .  A
C1969      C1974   1.402       .  A
C1969      H1976   1.081       .  S
C1970      C1971   1.423       .  A
C1971      C1978   1.510       .  S
C1971      C1972   1.403       .  A
C1972      C1973   1.406       .  A
C1972      H1977   1.081       .  S
C1973      C1974   1.422       .  A
C1974      C1975   1.510       .  S
C1975      H1979   1.111       .  S
C1975      H1980   1.104       .  S
C1975      H1981   1.110       .  S
C1978      H1982   1.104       .  S
C1978      H1983   1.110       .  S
C1978      H1984   1.111       .  S
C1985      C1986   1.408       .  A
C1985      C1990   1.402       .  A
C1985      H1992   1.081       .  S
C1986      C1987   1.422       .  A
C1987      C1994   1.511       .  S
C1987      C1988   1.401       .  A
C1988      C1989   1.407       .  A
C1988      H1993   1.081       .  S
C1989      C1990   1.421       .  A
C1990      C1991   1.510       .  S
C1991      H1995   1.111       .  S
C1991      H1996   1.110       .  S
C1991      H1997   1.104       .  S
C1994      H1998   1.110       .  S
C1994      H1999   1.104       .  S
C1994      H2000   1.111       .  S
C2001      C2002   1.407       .  A
C2001      C2006   1.401       .  A
C2001      H2008   1.081       .  S
C2002      C2003   1.422       .  A
C2003      C2010   1.510       .  S
C2003      C2004   1.403       .  A
C2004      C2005   1.407       .  A
C2004      H2009   1.080       .  S
C2005      C2006   1.422       .  A
C2006      C2007   1.511       .  S
C2007      H2011   1.111       .  S
C2007      H2012   1.104       .  S
C2007      H2013   1.110       .  S
C2010      H2014   1.104       .  S
C2010      H2015   1.110       .  S
C2010      H2016   1.111       .  S
