geometry optimzed in LAMMPS
_audit_creation_date              2020-11-30 
_audit_creation_method            'lammps2cif' 
_symmetry_space_group_name_H-M    'P1' 
_symmetry_Int_Tables_number       1 
_symmetry_cell_setting            triclinic 
loop_ 
_symmetry_equiv_pos_as_xyz 
  x,y,z 
_cell_length_a                    28.192778539766344 
_cell_length_b                    28.249707725412616 
_cell_length_c                    47.31721070293796 
_cell_angle_alpha                 90.0689189318935 
_cell_angle_beta                  88.48464633891544 
_cell_angle_gamma                 119.38139454757338 
loop_ 
_atom_site_label 
_atom_site_type_symbol 
_atom_site_fract_x 
_atom_site_fract_y 
_atom_site_fract_z 
_atom_site_charge 
C1          C  0.98743396  0.92526205  0.77317861     0.03670
C2          C  0.93601908  0.89172067  0.76256340    -0.12480
C3          C  0.90081830  0.91221052  0.75833603     0.01170
C4          C  0.91593900  0.96550749  0.76609048    -0.11010
C5          C  0.96884915  0.00063355  0.77456429     0.03660
C6          C  0.00376027  0.97951222  0.77925370    -0.10430
H7          H  0.92533167  0.85136768  0.75532765     0.09250
H8          H  0.88769425  0.98065869  0.76342045     0.06780
H9          H  0.04558307  0.00621323  0.78490222     0.06630
O10         O  0.29694567  0.85087099  0.72846165    -0.73890
O11         O  0.19068350  0.88916706  0.74932403    -0.73920
O12         O  0.25675117  0.86581301  0.77916025    -0.73970
O13         O  0.22878489  0.87096961  0.69968515    -0.74020
O14         O  0.16451106  0.78387372  0.70320030    -0.73950
O15         O  0.19295279  0.77836932  0.78053204    -0.73930
O16         O  0.12606688  0.80205892  0.75229001    -0.73910
O17         O  0.23373074  0.76327021  0.72997358    -0.73970
Ni18       Ni  0.24560912  0.87242864  0.73924989     1.25410
Ni19       Ni  0.17719401  0.77876802  0.74173748     1.25360
C20         C  0.28231051  0.80123563  0.72376507     0.88290
C21         C  0.14122478  0.85276317  0.75371344     0.88220
C22         C  0.22737555  0.82112804  0.79304308     0.88250
C23         C  0.19330227  0.82669019  0.68830441     0.88420
C24         C  0.39561087  0.72983207  0.74500574     0.03670
C25         C  0.38666379  0.67719979  0.74809878    -0.12480
C26         C  0.36301714  0.64839506  0.77324548     0.01170
C27         C  0.35822110  0.67501936  0.79730908    -0.11010
C28         C  0.37374523  0.73031760  0.79580685     0.03660
C29         C  0.38756571  0.75531788  0.76879050    -0.10430
H30         H  0.38845672  0.65572879  0.72943844     0.09250
H31         H  0.34147544  0.65235597  0.81688611     0.06780
H32         H  0.39214902  0.79525787  0.76618044     0.06630
O33         O  0.16763967  0.41156774  0.74679296    -0.73890
O34         O  0.06920719  0.26010880  0.75217397    -0.73920
O35         O  0.12257599  0.34023826  0.78905686    -0.73970
O36         O  0.11462234  0.33323536  0.70904314    -0.74020
O37         O  0.18451186  0.31725913  0.70618882    -0.73950
O38         O  0.19332657  0.32534256  0.78749181    -0.73930
O39         O  0.13992223  0.24488653  0.75064813    -0.73910
O40         O  0.23783584  0.39591939  0.74431258    -0.73970
Ni41       Ni  0.11585005  0.33649392  0.74914327     1.25410
Ni42       Ni  0.19122974  0.31983739  0.74683498     1.25360
C43         C  0.21886343  0.42857214  0.74664129     0.88290
C44         C  0.08899887  0.22814450  0.75391922     0.88220
C45         C  0.16051377  0.33662445  0.80141475     0.88250
C46         C  0.14971759  0.32702420  0.69425280     0.88420
O47         O  0.56433244  0.86999885  0.77408826    -0.73890
O48         O  0.68715429  0.87398179  0.73631847    -0.73920
O49         O  0.59215062  0.86051766  0.71827608    -0.73970
O50         O  0.65815568  0.88246238  0.79056256    -0.74020
O51         O  0.62320308  0.79281150  0.79592271    -0.73950
O52         O  0.55700662  0.77099842  0.72418544    -0.73930
O53         O  0.65142534  0.78432959  0.74211510    -0.73910
O54         O  0.52943288  0.78050339  0.77980810    -0.73970
Ni55       Ni  0.62655589  0.87495484  0.75429535     1.25410
Ni56       Ni  0.58848970  0.77889024  0.76045240     1.25360
C57         C  0.53080522  0.82520256  0.78637586     0.88290
C58         C  0.69053796  0.83052710  0.73418084     0.88220
C59         C  0.56768456  0.81219274  0.70852627     0.88250
C60         C  0.64810848  0.84086993  0.80579643     0.88420
C61         C  0.54929821  0.78557275  0.58698864     0.03670
C62         C  0.54694103  0.73912133  0.57497615    -0.12480
C63         C  0.53793471  0.72786646  0.54599451     0.01170
C64         C  0.53730518  0.76797208  0.52818471    -0.11010
C65         C  0.54322805  0.81715154  0.53959034     0.03660
C66         C  0.54749917  0.82406227  0.56912385    -0.10430
H67         H  0.55005357  0.71018897  0.58864727     0.09250
H68         H  0.53111833  0.76045724  0.50579054     0.06780
H69         H  0.54895953  0.85963097  0.57847834     0.06630
C70         C  0.19327925  0.80012878  0.56754169     0.03670
C71         C  0.15801097  0.75220038  0.55373339    -0.12480
C72         C  0.16945070  0.74103151  0.52608332     0.01170
C73         C  0.22094747  0.77854742  0.51329365    -0.11010
C74         C  0.25760228  0.82683578  0.52751088     0.03660
C75         C  0.24045225  0.83854430  0.55337849    -0.10430
H76         H  0.12255553  0.72231348  0.56548840     0.09250
H77         H  0.23314713  0.76979533  0.49297817     0.06780
H78         H  0.26675044  0.87613582  0.56392156     0.06630
C79         C  0.23225079  0.79398257  0.91466349     0.03670
C80         C  0.18989445  0.74826895  0.92868643    -0.12480
C81         C  0.18748396  0.74221973  0.95840398     0.01170
C82         C  0.22983006  0.78372127  0.97416808    -0.11010
C83         C  0.27357149  0.82976607  0.96048196     0.03660
C84         C  0.27371364  0.83361933  0.93079093    -0.10430
H85         H  0.15930548  0.71632005  0.91616272     0.09250
H86         H  0.22854108  0.78067731  0.99698849     0.06780
H87         H  0.30678458  0.86792145  0.91993753     0.06630
C88         C  0.61761244  0.81959752  0.92558735     0.03670
C89         C  0.59545022  0.76644527  0.93634980    -0.12480
C90         C  0.57274856  0.75243872  0.96407395     0.01170
C91         C  0.56285002  0.79094127  0.97870404    -0.11010
C92         C  0.58052750  0.84319477  0.96688637     0.03660
C93         C  0.61365442  0.85838944  0.94230455    -0.10430
H94         H  0.59320968  0.73523070  0.92239960     0.09250
H95         H  0.53993551  0.78009872  0.99847638     0.06780
H96         H  0.63203477  0.89998817  0.93472330     0.06630
C97         C  0.17938088  0.38530919  0.57524538     0.03670
C98         C  0.23110869  0.40266663  0.56300499    -0.12480
C99         C  0.24581723  0.42700266  0.53589838     0.01170
C100        C  0.20827530  0.43837243  0.52209866    -0.11010
C101        C  0.15682203  0.42415844  0.53487810     0.03660
C102        C  0.14206986  0.39448669  0.56049883    -0.10430
H103        H  0.26112351  0.39951115  0.57541711     0.09250
H104        H  0.21937586  0.45930722  0.50193505     0.06780
H105        H  0.10173228  0.38028952  0.56971883     0.06630
C106        C  0.19590463  0.40362058  0.91810992     0.03670
C107        C  0.24664275  0.41994682  0.92973046    -0.12480
C108        C  0.26282192  0.45154329  0.95434752     0.01170
C109        C  0.22507841  0.46471844  0.96792974    -0.11010
C110        C  0.17223820  0.44570315  0.95721184     0.03660
C111        C  0.15806777  0.41325603  0.93303109    -0.10430
H112        H  0.27406648  0.40906923  0.91890760     0.09250
H113        H  0.23742915  0.49129526  0.98596412     0.06780
H114        H  0.11767011  0.39736160  0.92474918     0.06630
C115        C  0.48253887  0.52369134  0.99496067     0.01100
C116        C  0.50795706  0.49279659  0.99951835     0.01100
C117        C  0.02499028  0.52441335  0.99488251     0.01100
C118        C  0.97006495  0.49724781  0.00207089     0.01100
C119        C  0.50455976  0.48312319  0.50007486     0.01100
C120        C  0.47533571  0.50852343  0.50806875     0.01100
C121        C  0.96643052  0.48657287  0.49075791     0.01100
C122        C  0.02204617  0.51466548  0.49590333     0.01100
C123        C  0.48869048  0.98107371  0.99956088     0.01100
C124        C  0.51687451  0.03678364  0.00375928     0.01100
C125        C  0.48549500  0.97085503  0.49462895     0.01100
C126        C  0.51358341  0.02681028  0.49099783     0.01100
O127        O  0.75272232  0.15727603  0.25850025    -0.73890
O128        O  0.84328407  0.09612920  0.24002312    -0.73920
O129        O  0.80518057  0.11926611  0.28891758    -0.73970
O130        O  0.78907239  0.13467301  0.21003235    -0.74020
O131        O  0.86360989  0.21638694  0.20968873    -0.73950
O132        O  0.87801071  0.20208807  0.28918527    -0.73930
O133        O  0.91623112  0.17886451  0.24093616    -0.73910
O134        O  0.82636201  0.23950584  0.25785573    -0.73970
Ni135      Ni  0.79513212  0.12361879  0.24936052     1.25410
Ni136      Ni  0.87380448  0.21201246  0.24938389     1.25360
C137        C  0.77500234  0.20875145  0.26120336     0.88290
C138        C  0.89475391  0.12780434  0.23729157     0.88220
C139        C  0.84134792  0.15980557  0.30238071     0.88250
C140        C  0.82331564  0.17836233  0.19697215     0.88420
C141        C  0.65235236  0.31433878  0.25239688     0.03670
C142        C  0.66613629  0.34159970  0.22625399    -0.12480
C143        C  0.64368933  0.37399449  0.21865340     0.01170
C144        C  0.61405607  0.38445450  0.23992880    -0.11010
C145        C  0.59978102  0.35680763  0.26635187     0.03660
C146        C  0.61630183  0.31860098  0.27142234    -0.10430
H147        H  0.69254048  0.33551929  0.21143746     0.09250
H148        H  0.60167833  0.41421415  0.23571587     0.06780
H149        H  0.60735685  0.29785836  0.29175580     0.06630
O150        O  0.47930744  0.23935655  0.21563633    -0.73890
O151        O  0.34948658  0.13973185  0.25480988    -0.73920
O152        O  0.37934439  0.17195432  0.20044522    -0.73970
O153        O  0.44925406  0.20680507  0.27175735    -0.74020
O154        O  0.42826841  0.27273498  0.27764334    -0.73950
O155        O  0.35855054  0.23818818  0.20624874    -0.73930
O156        O  0.32768679  0.20512126  0.26072659    -0.73910
O157        O  0.45839591  0.30531904  0.22152626    -0.73970
Ni158      Ni  0.41550257  0.18736772  0.23566076     1.25410
Ni159      Ni  0.39268727  0.25785215  0.24198676     1.25360
C160        C  0.48692826  0.28674704  0.20944635     0.88290
C161        C  0.31636876  0.15556125  0.26338484     0.88220
C162        C  0.36122589  0.20219776  0.19085450     0.88250
C163        C  0.44603467  0.24225711  0.28745417     0.88420
O164        O  0.69127085  0.57385216  0.26906180    -0.73890
O165        O  0.81285407  0.70895034  0.25115363    -0.73920
O166        O  0.74574518  0.62375047  0.21988823    -0.73970
O167        O  0.76012722  0.65807731  0.29903497    -0.74020
O168        O  0.81732259  0.62497734  0.30242586    -0.73950
O169        O  0.80148894  0.58926731  0.22423767    -0.73930
O170        O  0.86974884  0.67544071  0.25479553    -0.73910
O171        O  0.74642133  0.53881764  0.27414381    -0.73970
Ni172      Ni  0.75051875  0.64232533  0.25934956     1.25410
Ni173      Ni  0.81047206  0.60537476  0.26373760     1.25360
C174        C  0.69953175  0.53566588  0.27716303     0.88290
C175        C  0.86075620  0.71532686  0.25227423     0.88220
C176        C  0.77304822  0.60259642  0.20890835     0.88250
C177        C  0.79102428  0.64665749  0.31363171     0.88420
C178        C  0.79524528  0.21071476  0.07915886     0.03670
C179        C  0.83385143  0.25835394  0.06534832    -0.12480
C180        C  0.82582890  0.27227226  0.03806108     0.01170
C181        C  0.77917283  0.23422894  0.02341710    -0.11010
C182        C  0.73995091  0.18435300  0.03667984     0.03660
C183        C  0.74826772  0.17494480  0.06494812    -0.10430
H184        H  0.86945597  0.28657474  0.07665491     0.09250
H185        H  0.77279196  0.24422457  0.00231379     0.06780
H186        H  0.71741427  0.13998206  0.07651922     0.06630
C187        C  0.77668500  0.57849083  0.08680559     0.03670
C188        C  0.73499235  0.57876239  0.07143120    -0.12480
C189        C  0.72418155  0.55933492  0.04367067     0.01170
C190        C  0.76429270  0.55118281  0.02905865    -0.11010
C191        C  0.81146552  0.55801427  0.04293811     0.03660
C192        C  0.81459887  0.56787865  0.07228486    -0.10430
H193        H  0.70915003  0.59223202  0.08176319     0.09250
H194        H  0.75859784  0.53892649  0.00720934     0.06780
H195        H  0.84564027  0.56523207  0.08399265     0.06630
C196        C  0.38890833  0.20986710  0.07098764     0.03670
C197        C  0.39941882  0.25502347  0.05432995    -0.12480
C198        C  0.42618430  0.26542334  0.02760697     0.01170
C199        C  0.44203093  0.22777388  0.01750994    -0.11010
C200        C  0.43119880  0.18119049  0.03387653     0.03660
C201        C  0.40366063  0.17266951  0.06021890    -0.10430
H202        H  0.38873885  0.28381362  0.06322835     0.09250
H203        H  0.46367640  0.23517890  0.99743405     0.06780
H204        H  0.39596081  0.13797758  0.07310714     0.06630
C205        C  0.79601995  0.62371205  0.43290682     0.03670
C206        C  0.75232280  0.61456724  0.45096376    -0.12480
C207        C  0.73546408  0.57653136  0.47312039     0.01170
C208        C  0.76979336  0.55553436  0.48087220    -0.11010
C209        C  0.81932393  0.57093946  0.46536554     0.03660
C210        C  0.83087157  0.60414455  0.44103677    -0.10430
H211        H  0.72627389  0.63109852  0.44532382     0.09250
H212        H  0.75643056  0.52510832  0.49754911     0.06780
H213        H  0.86564633  0.61245082  0.42756183     0.06630
C214        C  0.80690434  0.19320427  0.41977836     0.03670
C215        C  0.83787396  0.24556105  0.43063440    -0.12480
C216        C  0.82642017  0.25941245  0.45775521     0.01170
C217        C  0.77659374  0.22110656  0.47170391    -0.11010
C218        C  0.74295223  0.16922512  0.45993225     0.03660
C219        C  0.76258109  0.15456258  0.43589155    -0.10430
H220        H  0.86949361  0.27607359  0.41710612     0.09250
H221        H  0.76310829  0.23173798  0.49101696     0.06780
H222        H  0.74034081  0.11329355  0.42837024     0.06630
C223        C  0.45846649  0.23505806  0.41013146     0.03670
C224        C  0.45174369  0.27309848  0.42651780    -0.12480
C225        C  0.45161636  0.27195150  0.45630035     0.01170
C226        C  0.45327188  0.22813794  0.46992619    -0.11010
C227        C  0.45901026  0.18863679  0.45405227     0.03660
C228        C  0.46483119  0.19497071  0.42439757    -0.10430
H229        H  0.44816330  0.30505863  0.41606034     0.09250
H230        H  0.45015775  0.22484449  0.49276031     0.06780
H231        H  0.47582763  0.16905668  0.41241258     0.06630
C232        C  0.02099532  0.02212532  0.23183342     0.03670
C233        C  0.07628133  0.04767496  0.23830420    -0.12480
C234        C  0.09704909  0.01961485  0.25340914     0.01170
C235        C  0.06546418  0.96398632  0.25799976    -0.11010
C236        C  0.01233311  0.93745613  0.24915319     0.03660
C237        C  0.98935254  0.96625189  0.23705047    -0.10430
H238        H  0.10256782  0.09029148  0.23324961     0.09250
H239        H  0.08130420  0.94156513  0.26926363     0.06780
H240        H  0.94616531  0.94496206  0.23326354     0.06630
C241        C  0.89417932  0.80585819  0.27048183    -0.20770
C242        C  0.90452121  0.77036215  0.25408550    -0.08810
C243        C  0.95462796  0.78868889  0.23978434     0.30050
C244        C  0.99213811  0.84393583  0.23965696    -0.20770
C245        C  0.97920687  0.87976918  0.25401632    -0.08820
C246        C  0.93141232  0.86047146  0.27050699     0.30050
F247        F  0.91974761  0.89481363  0.28541537    -0.19350
H248        H  0.85630547  0.79143924  0.28258246     0.18420
H249        H  0.02957954  0.85917013  0.22712525     0.18430
F250        F  0.96547790  0.75421332  0.22454286    -0.19330
C251        C  0.72702841  0.56510786  0.13375536    -0.20770
C252        C  0.77692615  0.58500428  0.11833344    -0.08810
C253        C  0.82555147  0.61033339  0.13348723     0.30050
C254        C  0.82370727  0.61433461  0.16302283    -0.20770
C255        C  0.77381352  0.59545389  0.17796883    -0.08820
C256        C  0.72554011  0.57159210  0.16300778     0.30050
F257        F  0.67679492  0.55375224  0.17675078    -0.19350
H258        H  0.68860116  0.54412856  0.12324448     0.18420
H259        H  0.86155710  0.63400378  0.17419661     0.18430
F260        F  0.87494181  0.63316170  0.11988967    -0.19330
C261        C  0.84360327  0.67605048  0.35767963    -0.20770
C262        C  0.79345637  0.65388216  0.34427717    -0.08810
C263        C  0.74504716  0.62889458  0.36050813     0.30050
C264        C  0.74667021  0.62225999  0.38952193    -0.20770
C265        C  0.79669230  0.64161036  0.40317148    -0.08820
C266        C  0.84538410  0.67096348  0.38701090     0.30050
F267        F  0.89456734  0.69314297  0.39927186    -0.19350
H268        H  0.88133291  0.69547388  0.34525845     0.18420
H269        H  0.70822837  0.59828064  0.40080611     0.18430
F270        F  0.69605321  0.60545996  0.34793337    -0.19330
C271        C  0.22498932  0.13276248  0.28136552    -0.20770
C272        C  0.26165114  0.11507229  0.27284798    -0.08810
C273        C  0.24187731  0.06040187  0.26550578     0.30050
C274        C  0.18687156  0.02771557  0.26098982    -0.20770
C275        C  0.15145762  0.04877700  0.26473782    -0.08820
C276        C  0.16979633  0.09963987  0.27731884     0.30050
F277        F  0.13511414  0.11889766  0.28353619    -0.19350
H278        H  0.23934392  0.17410087  0.28817807     0.18420
H279        H  0.17301024  0.98785345  0.25211090     0.18430
F280        F  0.27593237  0.04063849  0.25881525    -0.19330
C281        C  0.38997934  0.25436241  0.11685851    -0.20770
C282        C  0.37026649  0.20633275  0.10115055    -0.08810
C283        C  0.33792830  0.15612150  0.11537807     0.30050
C284        C  0.33088321  0.15431851  0.14487396    -0.20770
C285        C  0.35329389  0.20249930  0.16034757    -0.08820
C286        C  0.38062876  0.25260524  0.14590566     0.30050
F287        F  0.40433098  0.30005894  0.16023034    -0.19350
H288        H  0.41618991  0.29373860  0.10718561     0.18420
H289        H  0.30981002  0.11534058  0.15573477     0.18430
F290        F  0.31453210  0.10874131  0.10105369    -0.19330
C291        C  0.44170446  0.19375327  0.33214778    -0.20770
C292        C  0.45649415  0.24309640  0.31814997    -0.08810
C293        C  0.47233021  0.28969290  0.33454204     0.30050
C294        C  0.47638790  0.28749835  0.36389757    -0.20770
C295        C  0.45951997  0.23771840  0.37825573    -0.08820
C296        C  0.44115298  0.19047875  0.36170256     0.30050
F297        F  0.41884601  0.14030517  0.37380722    -0.19350
H298        H  0.42645398  0.15653084  0.32027570     0.18420
H299        H  0.49154481  0.32513969  0.37526572     0.18430
F300        F  0.48172385  0.33705093  0.32251917    -0.19330
C301        C  0.62398234  0.39951631  0.31123404    -0.20770
C302        C  0.58362383  0.37952949  0.29078975    -0.08810
C303        C  0.56301813  0.41428561  0.28383987     0.30050
C304        C  0.60071366  0.46973731  0.28166330    -0.20770
C305        C  0.65422608  0.48740321  0.29014374    -0.08820
C306        C  0.66375002  0.45395518  0.30840815     0.30050
F307        F  0.71274138  0.47181356  0.32044630    -0.19350
H308        H  0.63446586  0.37244820  0.32220127     0.18420
H309        H  0.59068013  0.49611082  0.26968422     0.18430
F310        F  0.51601940  0.39470034  0.26963389    -0.19330
C311        C  0.60765190  0.41009530  0.18318724    -0.20770
C312        C  0.63851192  0.38400326  0.18778940    -0.08810
C313        C  0.61831142  0.33526347  0.17263947     0.30050
C314        C  0.56234732  0.29956725  0.17634565    -0.20770
C315        C  0.53030073  0.32034061  0.18865908    -0.08820
C316        C  0.55087233  0.37704442  0.18666353     0.30050
F317        F  0.51971391  0.39985516  0.19383897    -0.19350
H318        H  0.62522685  0.45306713  0.18704312     0.18420
H319        H  0.54651945  0.25636994  0.17365539     0.18430
F320        F  0.65159750  0.31551158  0.16435284    -0.19330
C321        C  0.91193530  0.05759464  0.21538372    -0.20770
C322        C  0.93056896  0.10550980  0.23079276    -0.08810
C323        C  0.98332371  0.13105392  0.24122386     0.30050
C324        C  0.01439385  0.10557753  0.23927054    -0.20770
C325        C  0.99435895  0.05493807  0.22608448    -0.08820
C326        C  0.94419794  0.03301806  0.21234097     0.30050
F327        F  0.92534976  0.98708617  0.19688522    -0.19350
H328        H  0.87205363  0.03870505  0.20619689     0.18420
H329        H  0.05222217  0.12399094  0.25035867     0.18430
F330        F  0.00320832  0.17827345  0.25566595    -0.19330
C331        C  0.86033551  0.20504963  0.14772266    -0.20770
C332        C  0.81582392  0.18518458  0.16688202    -0.08810
C333        C  0.76432169  0.17237451  0.15712209     0.30050
C334        C  0.75788387  0.18055484  0.12866460    -0.20770
C335        C  0.80236843  0.20036220  0.10924036    -0.08820
C336        C  0.85367264  0.21172194  0.11908646     0.30050
F337        F  0.89722807  0.22815482  0.10100331    -0.19350
H338        H  0.90015899  0.21441320  0.15487771     0.18420
H339        H  0.71817838  0.17244422  0.12199007     0.18430
F340        F  0.72067007  0.15400085  0.17532306    -0.19330
C341        C  0.78234091  0.13791507  0.34513775    -0.20770
C342        C  0.83531862  0.16085601  0.33345135    -0.08810
C343        C  0.87957407  0.19223557  0.35074127     0.30050
C344        C  0.87045589  0.20095872  0.37911552    -0.20770
C345        C  0.81708893  0.17997553  0.39044397    -0.08820
C346        C  0.77307674  0.14826629  0.37290705     0.30050
F347        F  0.72077392  0.13066262  0.38164168    -0.19350
H348        H  0.74744410  0.11530798  0.33203477     0.18420
H349        H  0.90514409  0.22521342  0.39203730     0.18430
F350        F  0.93139319  0.21539586  0.34007751    -0.19330
C351        C  0.76757308  0.29121177  0.26690519    -0.20770
C352        C  0.74155995  0.23425170  0.26641771    -0.08810
C353        C  0.68428989  0.20376268  0.26688279     0.30050
C354        C  0.65420089  0.23036237  0.26412407    -0.20770
C355        C  0.68133703  0.28685573  0.26105819    -0.08820
C356        C  0.73762492  0.31745106  0.26398688     0.30050
F357        F  0.76380498  0.37256778  0.26211511    -0.19350
H358        H  0.81148456  0.31570724  0.26742966     0.18420
H359        H  0.61035473  0.20696679  0.26253600     0.18430
F360        F  0.65766966  0.14864199  0.26800298    -0.19330
C361        C  0.61165352  0.08727327  0.50530408    -0.20770
C362        C  0.57365425  0.05771673  0.48445797    -0.08810
C363        C  0.59160463  0.06620804  0.45612897     0.30050
C364        C  0.64581724  0.10291191  0.44880970    -0.20770
C365        C  0.68481366  0.13150982  0.46948241    -0.08820
C366        C  0.66682876  0.12299111  0.49804333     0.30050
F367        F  0.70221163  0.14856933  0.51895659    -0.19350
H368        H  0.59851845  0.08317532  0.52729220     0.18420
H369        H  0.65688878  0.10968052  0.42654096     0.18430
F370        F  0.55586426  0.04081523  0.43529057    -0.19330
C371        C  0.45453007  0.05228898  0.46305168    -0.20770
C372        C  0.48605043  0.06041064  0.48689009    -0.08810
C373        C  0.50187302  0.10842829  0.50237969     0.30050
C374        C  0.49062515  0.14890945  0.49268050    -0.20770
C375        C  0.46214194  0.14204886  0.46765436    -0.08820
C376        C  0.44103977  0.09134239  0.45411974     0.30050
F377        F  0.40915965  0.08015651  0.43132435    -0.19350
H378        H  0.44380024  0.01768639  0.44982433     0.18420
H379        H  0.50694886  0.18681216  0.50396393     0.18430
F380        F  0.53103439  0.11777878  0.52607789    -0.19330
C381        C  0.66103348  0.15995818  0.00385020    -0.20770
C382        C  0.68769317  0.14350907  0.02298890    -0.08810
C383        C  0.66062577  0.08791833  0.03121288     0.30050
C384        C  0.60626193  0.05319261  0.02438819    -0.20770
C385        C  0.57835094  0.07011075  0.00647551    -0.08820
C386        C  0.60795446  0.12364657  0.99516079     0.30050
F387        F  0.58493278  0.14209997  0.97649783    -0.19350
H388        H  0.68004026  0.20163246  0.99641251     0.18420
H389        H  0.58556478  0.01412732  0.03473861     0.18430
F390        F  0.68592220  0.06675484  0.04659183    -0.19330
C391        C  0.46860806  0.11917156  0.04610855    -0.20770
C392        C  0.45128962  0.14268228  0.02525409    -0.08810
C393        C  0.45316570  0.12826809  0.99687525     0.30050
C394        C  0.47281790  0.09259151  0.98984194    -0.20770
C395        C  0.48774490  0.06764853  0.01091979    -0.08820
C396        C  0.48545406  0.08153466  0.03915081     0.30050
F397        F  0.50243023  0.06076494  0.05995507    -0.19350
H398        H  0.47043430  0.13067990  0.06803509     0.18420
H399        H  0.47864748  0.08654010  0.96773968     0.18430
F400        F  0.43613569  0.14837045  0.97582211    -0.19330
C401        C  0.90586824  0.52533436  0.50650581    -0.20770
C402        C  0.93423770  0.51471930  0.48467691    -0.08810
C403        C  0.92239621  0.52011236  0.45664500     0.30050
C404        C  0.88426797  0.53673446  0.45066107    -0.20770
C405        C  0.85727526  0.54954665  0.47244461    -0.08820
C406        C  0.86888595  0.54363462  0.50059990     0.30050
F407        F  0.84506746  0.55600248  0.52251182    -0.19350
H408        H  0.91161727  0.51838710  0.52834912     0.18420
H409        H  0.87523657  0.53848327  0.42872830     0.18430
F410        F  0.94614897  0.50702466  0.43497016    -0.19330
C411        C  0.95269378  0.39972921  0.46759310    -0.20770
C412        C  0.93434870  0.42539741  0.48687598    -0.08810
C413        C  0.88101002  0.39379572  0.49857802     0.30050
C414        C  0.84653933  0.34039048  0.48953544    -0.20770
C415        C  0.86470125  0.31511453  0.46963321    -0.08820
C416        C  0.92013478  0.34506313  0.46042892     0.30050
F417        F  0.94387941  0.32213537  0.44440217    -0.19350
H418        H  0.99151899  0.42237574  0.45677965     0.18420
H419        H  0.80513496  0.31983985  0.49783129     0.18430
F420        F  0.86110873  0.41468372  0.51836383    -0.19330
C421        C  0.50204301  0.39368411  0.50512566    -0.20770
C422        C  0.47940949  0.42361888  0.49331178    -0.08810
C423        C  0.44110124  0.39920886  0.47204705     0.30050
C424        C  0.42804557  0.34739563  0.46215734    -0.20770
C425        C  0.45451098  0.31950549  0.47221388    -0.08820
C426        C  0.49041748  0.34278667  0.49465878     0.30050
F427        F  0.51841685  0.31912348  0.50484750    -0.19350
H428        H  0.53195118  0.41158593  0.52139161     0.18420
H429        H  0.39935835  0.33050767  0.44530774     0.18250
F430        F  0.41982273  0.42705663  0.45905856    -0.19330
C431        C  0.60265608  0.53217651  0.51622321    -0.20770
C432        C  0.56475841  0.51361853  0.49440395    -0.08810
C433        C  0.58354316  0.51413036  0.46659283     0.30050
C434        C  0.63832560  0.53195835  0.46068242    -0.20770
C435        C  0.67681494  0.55133843  0.48209641    -0.08820
C436        C  0.65856268  0.55128340  0.51010039     0.30050
F437        F  0.69455999  0.57010640  0.53127870    -0.19350
H438        H  0.58874925  0.53057002  0.53792766     0.18420
H439        H  0.65101545  0.53118252  0.43895852     0.18430
F440        F  0.54828823  0.49595643  0.44502596    -0.19330
C441        C  0.94976723  0.56669743  0.02564543    -0.20770
C442        C  0.93541475  0.52406938  0.00651366    -0.08810
C443        C  0.88181566  0.49829078  0.99638898     0.30050
C444        C  0.84255483  0.51092549  0.00722592    -0.20770
C445        C  0.85554728  0.55055361  0.02808826    -0.08820
C446        C  0.91077180  0.58041062  0.03596378     0.30050
F447        F  0.92707628  0.62213610  0.05431145    -0.19350
H448        H  0.99027021  0.58722809  0.03404139     0.18420
H449        H  0.80116003  0.48728644  0.00029181     0.18430
F450        F  0.86623822  0.45797931  0.97719629    -0.19330
C451        C  0.92369432  0.39569019  0.99112655    -0.20770
C452        C  0.94089727  0.43819440  0.01077170    -0.08810
C453        C  0.92052607  0.42517425  0.03874828     0.30050
C454        C  0.88249395  0.37207992  0.04664843    -0.20770
C455        C  0.86455358  0.32903698  0.02734768    -0.08820
C456        C  0.88605121  0.34146948  0.99933376     0.30050
F457        F  0.87097584  0.30152358  0.97998368    -0.19350
H458        H  0.93780151  0.40478288  0.96927480     0.18420
H459        H  0.86634224  0.36490799  0.06818469     0.18430
F460        F  0.93575677  0.46470458  0.05839875    -0.19330
C461        C  0.40869464  0.34322779  0.01846783    -0.20770
C462        C  0.44074292  0.31848147  0.01276201    -0.08810
C463        C  0.49007941  0.34955211  0.99725445     0.30050
C464        C  0.50760632  0.40414613  0.98996248    -0.20770
C465        C  0.47926750  0.43102171  0.99979008    -0.08820
C466        C  0.42955242  0.39896341  0.01458067     0.30050
F467        F  0.40469596  0.42146872  0.02952062    -0.19350
H468        H  0.36923335  0.32084910  0.02904879     0.18420
H469        H  0.54614398  0.42654913  0.97859009     0.18430
F470        F  0.52394900  0.32944079  0.99104468    -0.19330
C471        C  0.66259522  0.54722450  0.00223213    -0.20770
C472        C  0.66960447  0.54543716  0.03154093    -0.08810
C473        C  0.62258788  0.52783042  0.04948478     0.30050
C474        C  0.57237582  0.51648273  0.03872962    -0.20770
C475        C  0.56547774  0.51836431  0.00968029    -0.08820
C476        C  0.61098999  0.53206148  0.99136692     0.30050
F477        F  0.60501950  0.52690917  0.96298487    -0.19350
H478        H  0.69659533  0.55880633  0.98750611     0.18420
H479        H  0.53742419  0.50227503  0.05313451     0.18430
F480        F  0.62334144  0.51721740  0.07737541    -0.19330
C481        C  0.08369343  0.48190214  0.00650593    -0.20770
C482        C  0.05493909  0.49459812  0.98673539    -0.08810
C483        C  0.06472819  0.49049555  0.95787976     0.30050
C484        C  0.10314406  0.47564479  0.94892243    -0.20770
C485        C  0.13265525  0.46316703  0.96837037    -0.08820
C486        C  0.12208809  0.46613275  0.99747598     0.30050
F487        F  0.14865709  0.45386495  0.01715012    -0.19350
H488        H  0.07785533  0.48617161  0.02888002     0.18420
H489        H  0.11070189  0.47527225  0.92639761     0.18430
F490        F  0.03886075  0.50365133  0.93815767    -0.19330
C491        C  0.32924796  0.47609442  0.99405238    -0.20770
C492        C  0.31943706  0.47099972  0.96493859    -0.08810
C493        C  0.36422901  0.48330429  0.94618085     0.30050
C494        C  0.41535539  0.49604186  0.95642925    -0.20770
C495        C  0.42470768  0.49977783  0.98549115    -0.08820
C496        C  0.38130359  0.49201225  0.00415625     0.30050
F497        F  0.38868617  0.49941072  0.03238220    -0.19350
H498        H  0.29657816  0.46780840  0.00919506     0.18420
H499        H  0.44873227  0.50571412  0.94148367     0.18430
F500        F  0.35995188  0.48612331  0.91780970    -0.19330
C501        C  0.09089520  0.45937079  0.54302974    -0.20770
C502        C  0.11990539  0.44400243  0.52373800    -0.08810
C503        C  0.11372014  0.44939025  0.49461570     0.30050
C504        C  0.08071646  0.47058564  0.48544682    -0.20770
C505        C  0.05124229  0.48489668  0.50488314    -0.08820
C506        C  0.05681503  0.47889085  0.53380713     0.30050
F507        F  0.03106108  0.49436963  0.55328462    -0.19350
H508        H  0.09563235  0.45783225  0.56558093     0.18420
H509        H  0.07959545  0.47731700  0.46302811     0.18430
F510        F  0.13916103  0.43412090  0.47488242    -0.19330
C511        C  0.32754680  0.41272080  0.53171171    -0.20770
C512        C  0.30189636  0.44287228  0.52391114    -0.08810
C513        C  0.33273010  0.49029913  0.50731945     0.30050
C514        C  0.38734087  0.50748417  0.50001268    -0.20770
C515        C  0.41401593  0.48004270  0.51013675    -0.08820
C516        C  0.38311712  0.43203707  0.52606671     0.30050
F517        F  0.40708581  0.40607135  0.53832253    -0.19350
H518        H  0.30533522  0.37521518  0.54374253     0.18420
H519        H  0.41022432  0.54503028  0.48802719     0.18430
F520        F  0.31226921  0.52295717  0.49998061    -0.19330
C521        C  0.54679712  0.90832523  0.95620926    -0.20770
C522        C  0.55919840  0.87996982  0.97671006    -0.08810
C523        C  0.54964818  0.88681077  0.00539882     0.30050
C524        C  0.52815552  0.92080500  0.01300731    -0.20770
C525        C  0.51784546  0.95031472  0.99236613    -0.08820
C526        C  0.52714906  0.94335687  0.96388499     0.30050
F527        F  0.51492599  0.96880344  0.94333168    -0.19350
H528        H  0.55118093  0.90260337  0.93386256     0.18420
H529        H  0.51924262  0.92386530  0.03511584     0.18430
F530        F  0.56139341  0.86132505  0.02609439    -0.19330
C531        C  0.51422747  0.67163365  0.99694584    -0.20770
C532        C  0.55557516  0.69624270  0.97582196    -0.08810
C533        C  0.57921665  0.66525678  0.96532641     0.30050
C534        C  0.55656333  0.61013682  0.97235249    -0.20770
C535        C  0.51389919  0.58494926  0.99248966    -0.08820
C536        C  0.49493753  0.61762311  0.00573987     0.30050
F537        F  0.45669165  0.59750160  0.02685895    -0.19350
H538        H  0.49510707  0.69306011  0.00639998     0.18420
H539        H  0.57091702  0.58676746  0.96073846     0.18430
F540        F  0.62418641  0.68746868  0.94797572    -0.19330
C541        C  0.40313101  0.96273822  0.97441388    -0.20770
C542        C  0.42765583  0.94831597  0.99568153    -0.08810
C543        C  0.39609286  0.89645829  0.00861970     0.30050
C544        C  0.34445954  0.85899926  0.99852632    -0.20770
C545        C  0.32169292  0.87279335  0.97600318    -0.08820
C546        C  0.35019664  0.92705434  0.96583013     0.30050
F547        F  0.32814165  0.94533152  0.94642184    -0.19350
H548        H  0.42601456  0.99993033  0.96260595     0.18420
H549        H  0.32383829  0.81821868  0.00735695     0.18430
F550        F  0.41626416  0.88052154  0.03004674    -0.19330
C551        C  0.08906350  0.66548684  0.96042744    -0.20770
C552        C  0.14161177  0.69110849  0.97198613    -0.08810
C553        C  0.15067991  0.66412092  0.99450074     0.30050
C554        C  0.10991266  0.61236382  0.00370440    -0.20770
C555        C  0.05920188  0.58506150  0.99057946    -0.08820
C556        C  0.04872124  0.61300400  0.96923765     0.30050
F557        F  0.00134772  0.58802911  0.95524614    -0.19350
H558        H  0.07979490  0.68509286  0.94348883     0.18420
H559        H  0.11950269  0.59183380  0.02003068     0.18430
F560        F  0.20035754  0.68522027  0.00612775    -0.19330
C561        C  0.33076651  0.87882543  0.48931828    -0.20770
C562        C  0.31572296  0.86400407  0.51788172    -0.08810
C563        C  0.35722854  0.88649492  0.53802282     0.30050
C564        C  0.41041407  0.92511969  0.53012300    -0.20770
C565        C  0.42555989  0.94040617  0.50179387    -0.08820
C566        C  0.38532570  0.91550362  0.48122267     0.30050
F567        F  0.39914391  0.92311992  0.45328377    -0.19350
H568        H  0.30054543  0.86134847  0.47319598     0.18420
H569        H  0.44106151  0.94072853  0.54614302     0.18430
F570        F  0.34735255  0.86920104  0.56541125    -0.19330
C571        C  0.14670124  0.65858506  0.49517847    -0.20770
C572        C  0.12933781  0.68728053  0.51309917    -0.08810
C573        C  0.07319296  0.66105095  0.52090277     0.30050
C574        C  0.03863437  0.60610499  0.51495650    -0.20770
C575        C  0.05615263  0.57630570  0.49813581    -0.08820
C576        C  0.11056845  0.60472255  0.48722431     0.30050
F577        F  0.12995376  0.58014858  0.46945326    -0.19350
H578        H  0.18881995  0.67676760  0.48804900     0.18420
H579        H  0.99916539  0.58680742  0.52513219     0.18430
F580        F  0.05115276  0.68784906  0.53499596    -0.19330
C581        C  0.55355355  0.95233862  0.51936484    -0.20770
C582        C  0.51310794  0.93715866  0.49918504    -0.08810
C583        C  0.49033726  0.88383052  0.48846964     0.30050
C584        C  0.50280546  0.84559883  0.50015205    -0.20770
C585        C  0.53999521  0.85995537  0.52204666    -0.08820
C586        C  0.56858227  0.91527164  0.52967890     0.30050
F587        F  0.60925105  0.93323908  0.54845686    -0.19350
H588        H  0.57081251  0.99152757  0.52909671     0.18420
H589        H  0.48059952  0.80395227  0.49322019     0.18430
F590        F  0.45293027  0.86725116  0.46800679    -0.19330
C591        C  0.54456763  0.66456358  0.50912958    -0.20770
C592        C  0.52579941  0.67249582  0.53574917    -0.08810
C593        C  0.49469156  0.62616393  0.55315544     0.30050
C594        C  0.48465783  0.57483977  0.54479675    -0.20770
C595        C  0.50168867  0.56634106  0.51808622    -0.08820
C596        C  0.53198928  0.61193424  0.50016167     0.30050
F597        F  0.54672775  0.60540069  0.47354714    -0.19350
H598        H  0.56815663  0.69890260  0.49506474     0.18420
H599        H  0.45963903  0.54044555  0.55862428     0.18430
F600        F  0.47039099  0.62934682  0.57768826    -0.19330
C601        C  0.52813597  0.82081346  0.66288021    -0.20770
C602        C  0.55973574  0.80414379  0.67784187    -0.08810
C603        C  0.58831711  0.78251572  0.66291098     0.30050
C604        C  0.58556592  0.77783186  0.63357155    -0.20770
C605        C  0.55296577  0.79309188  0.61832999    -0.08820
C606        C  0.52361064  0.81419154  0.63346113     0.30050
F607        F  0.48926708  0.82692977  0.62010280    -0.19350
H608        H  0.50640084  0.83818065  0.67391969     0.18420
H609        H  0.60965292  0.76271123  0.62275590     0.18430
F610        F  0.62089230  0.76785363  0.67667031    -0.19330
C611        C  0.67042769  0.81315897  0.85143702    -0.20770
C612        C  0.65610919  0.84682260  0.83638371    -0.08810
C613        C  0.63569215  0.87633635  0.85121215     0.30050
C614        C  0.62528689  0.86860736  0.88020108    -0.20770
C615        C  0.63690324  0.83288407  0.89544556    -0.08820
C616        C  0.66217425  0.80715505  0.88084889     0.30050
F617        F  0.67734804  0.77492614  0.89472106    -0.19350
H618        H  0.68583430  0.78978988  0.84025975     0.18420
H619        H  0.60458389  0.88813440  0.89019160     0.18430
F620        F  0.61946242  0.90770544  0.83726522    -0.19330
C621        C  0.17878174  0.31654277  0.64489456    -0.20770
C622        C  0.15198549  0.33558204  0.66320303    -0.08810
C623        C  0.13109009  0.36751353  0.65184739     0.30050
C624        C  0.13891578  0.38183591  0.62327819    -0.20770
C625        C  0.16684203  0.36415813  0.60495770    -0.08820
C626        C  0.18562172  0.33005465  0.61596727     0.30050
F627        F  0.21072049  0.30989726  0.59888510    -0.19350
H628        H  0.19493951  0.29168001  0.65302174     0.18420
H629        H  0.12499259  0.40901602  0.61581459     0.18430
F630        F  0.10588368  0.38805389  0.66859376    -0.19330
C631        C  0.15339177  0.38789140  0.84199015    -0.20770
C632        C  0.16803167  0.35010675  0.83170826    -0.08810
C633        C  0.19180250  0.32914142  0.85008867     0.30050
C634        C  0.19963387  0.34526773  0.87846068    -0.20770
C635        C  0.18480041  0.38320836  0.88867549    -0.08820
C636        C  0.16231989  0.40492156  0.86985303     0.30050
F637        F  0.15147893  0.44489685  0.87787124    -0.19350
H638        H  0.13671914  0.40610102  0.82805812     0.18420
H639        H  0.21744418  0.32827948  0.89240008     0.18430
F640        F  0.20695256  0.29293474  0.84076073    -0.19330
C641        C  0.40819310  0.82048800  0.81658046    -0.20770
C642        C  0.38760160  0.76449214  0.82205915    -0.08810
C643        C  0.42247087  0.75503854  0.83894241     0.30050
C644        C  0.47731039  0.78177623  0.83003465    -0.20770
C645        C  0.49433800  0.82361855  0.80948998    -0.08820
C646        C  0.46291332  0.84952972  0.80691927     0.30050
F647        F  0.47982315  0.89401616  0.79002217    -0.19350
H648        H  0.38107357  0.83450731  0.80957405     0.18420
H649        H  0.50301387  0.76474059  0.83542192     0.18430
F650        F  0.40292293  0.70929172  0.85511341    -0.19330
C651        C  0.31282979  0.50555687  0.75033543    -0.20770
C652        C  0.25631151  0.48568957  0.75232559    -0.08810
C653        C  0.23619390  0.51857342  0.76378125     0.30050
C654        C  0.27204083  0.57009162  0.77311622    -0.20770
C655        C  0.32826604  0.59008124  0.77075172    -0.08820
C656        C  0.34873525  0.55771979  0.75932302     0.30050
F657        F  0.40322989  0.57730325  0.75611082    -0.19350
H658        H  0.32923185  0.48075340  0.74187928     0.18420
H659        H  0.25587169  0.59560753  0.78085572     0.18430
F660        F  0.18199037  0.50110205  0.76632483    -0.19330
C661        C  0.19829126  0.85720983  0.60964979    -0.20770
C662        C  0.18628442  0.80641582  0.59831097    -0.08810
C663        C  0.17437980  0.76305490  0.61696780     0.30050
C664        C  0.17445251  0.77032474  0.64597413    -0.20770
C665        C  0.18811171  0.82122281  0.65738229    -0.08820
C666        C  0.19987504  0.86483557  0.63901142     0.30050
F667        F  0.21318274  0.91452450  0.64933677    -0.19350
H668        H  0.20788213  0.89135112  0.59574894     0.18420
H669        H  0.16667618  0.73632452  0.65960829     0.18430
F670        F  0.16687497  0.71458903  0.60739242    -0.19330
C671        C  0.27970346  0.83526667  0.83734324    -0.20770
C672        C  0.23012081  0.81780603  0.82414064    -0.08810
C673        C  0.18161806  0.79303366  0.84070040     0.30050
C674        C  0.18283312  0.78576865  0.86985703    -0.20770
C675        C  0.23226712  0.80142203  0.88323279    -0.08820
C676        C  0.28092920  0.82577964  0.86638270     0.30050
F677        F  0.32955395  0.83849204  0.87753022    -0.19350
H678        H  0.31724916  0.85464454  0.82496436     0.18420
H679        H  0.14482019  0.76819258  0.88200221     0.18430
F680        F  0.13285418  0.77675793  0.82869649    -0.19330
C681        C  0.34622702  0.71810962  0.70272775    -0.20770
C682        C  0.39520169  0.75096870  0.71641617    -0.08810
C683        C  0.41623183  0.80739990  0.71409111     0.30050
C684        C  0.37873616  0.82614929  0.71330673    -0.20770
C685        C  0.32288478  0.78808611  0.71184222    -0.08820
C686        C  0.30769257  0.73540802  0.70261265     0.30050
F687        F  0.25513714  0.69920235  0.69708369    -0.19350
H688        H  0.33188799  0.67518054  0.69998734     0.18420
H689        H  0.39237907  0.86829370  0.71816017     0.18430
F690        F  0.46709684  0.84168041  0.72304899    -0.19330
C691        C  0.03311125  0.09386285  0.79083971    -0.20770
C692        C  0.99157545  0.06012897  0.77268607    -0.08810
C693        C  0.97893476  0.08385957  0.74981826     0.30050
C694        C  0.00912854  0.13951084  0.74466529    -0.20770
C695        C  0.05331959  0.17157986  0.76134962    -0.08820
C696        C  0.06463430  0.14908770  0.78486066     0.30050
F697        F  0.10689881  0.18042178  0.80162596    -0.19350
H698        H  0.04307524  0.07701562  0.80880964     0.18420
H699        H  0.00032987  0.15698693  0.72652423     0.18430
F700        F  0.94102173  0.05329634  0.73081102    -0.19330
C701        C  0.83695925  0.90577092  0.72186794    -0.20770
C702        C  0.85038187  0.88043008  0.74328168    -0.08810
C703        C  0.81253943  0.82764896  0.75237701     0.30050
C704        C  0.75914946  0.80470274  0.74368185    -0.20770
C705        C  0.74343552  0.83567605  0.72718144    -0.08820
C706        C  0.78334254  0.88346917  0.71378319     0.30050
F707        F  0.76928660  0.91271204  0.69654669    -0.19350
H708        H  0.86673881  0.94544025  0.71361744     0.18420
H709        H  0.72890989  0.76715981  0.75380270     0.18430
F710        F  0.82488016  0.80175457  0.77262439    -0.19330
C711        C  0.07486526  0.93906937  0.75410175    -0.20770
C712        C  0.02810744  0.90772110  0.77089948    -0.08810
C713        C  0.01815402  0.85764715  0.78221626     0.30050
C714        C  0.05508198  0.83922502  0.77657786    -0.20770
C715        C  0.10185566  0.87084708  0.75970998    -0.08820
C716        C  0.11149092  0.92091820  0.74846524     0.30050
F717        F  0.15512879  0.95138330  0.73100309    -0.19350
H718        H  0.08200036  0.97680638  0.74437707     0.18420
H719        H  0.04738353  0.80066291  0.78541526     0.18430
F720        F  0.97277513  0.82674627  0.79844503    -0.19330
loop_ 
_geom_bond_atom_site_label_1 
_geom_bond_atom_site_label_2 
_geom_bond_distance 
_geom_bond_site_symmetry_2 
_ccdc_geom_bond_type 
C1            C2   1.393       .  A
C1            C6   1.399   1_655  A
C1          C712   1.457   1_655  S
C2            C3   1.391       .  A
C2            H7   1.084       .  S
C3            C4   1.400       .  A
C3          C702   1.461       .  S
C4            C5   1.396   1_565  A
C4            H8   1.083       .  S
C5            C6   1.401   1_645  A
C5          C692   1.478       .  S
C6            H9   1.084   1_565  S
O10         Ni18   1.884       .  S
O10          C20   1.274       .  A
O11         Ni18   1.878       .  S
O11          C21   1.274       .  A
O12         Ni18   1.947       .  S
O12          C22   1.288       .  A
O13         Ni18   1.939       .  S
O13          C23   1.286       .  A
O14         Ni19   1.887       .  S
O14          C23   1.276       .  A
O15         Ni19   1.901       .  S
O15          C22   1.277       .  A
O16         Ni19   1.911       .  S
O16          C21   1.280       .  A
O17         Ni19   1.918       .  S
O17          C20   1.285       .  A
Ni18        Ni19   2.391       .  S
C20         C685   1.465       .  S
C21         C715   1.454       .  S
C22         C672   1.481       .  S
C23         C665   1.475       .  S
C24          C25   1.388       .  A
C24          C29   1.408       .  A
C24         C682   1.482       .  S
C25          C26   1.397       .  A
C25          H30   1.085       .  S
C26          C27   1.404       .  A
C26         C655   1.452       .  S
C27          C28   1.402       .  A
C27          H31   1.083       .  S
C28          C29   1.411       .  A
C28         C642   1.510       .  S
C29          H32   1.078       .  S
O33         Ni41   1.896       .  S
O33          C43   1.279       .  A
O34         Ni41   1.901       .  S
O34          C44   1.277       .  A
O35         Ni41   1.901       .  S
O35          C45   1.279       .  A
O36         Ni41   1.900       .  S
O36          C46   1.278       .  A
O37         Ni42   1.935       .  S
O37          C46   1.286       .  A
O38         Ni42   1.930       .  S
O38          C45   1.284       .  A
O39         Ni42   1.895       .  S
O39          C44   1.277       .  A
O40         Ni42   1.892       .  S
O40          C43   1.277       .  A
Ni41        Ni42   2.391       .  S
C43         C652   1.460       .  S
C44         C695   1.447       .  S
C45         C632   1.477       .  S
C46         C622   1.484       .  S
O47         Ni55   1.910       .  S
O47          C57   1.277       .  A
O48         Ni55   1.901       .  S
O48          C58   1.281       .  A
O49         Ni55   1.926       .  S
O49          C59   1.282       .  A
O50         Ni55   1.918       .  S
O50          C60   1.283       .  A
O51         Ni56   1.907       .  S
O51          C60   1.279       .  A
O52         Ni56   1.915       .  S
O52          C59   1.281       .  A
O53         Ni56   1.891       .  S
O53          C58   1.276       .  A
O54         Ni56   1.899       .  S
O54          C57   1.282       .  A
Ni55        Ni56   2.394       .  S
C57         C645   1.467       .  S
C58         C705   1.455       .  S
C59         C602   1.475       .  S
C60         C612   1.467       .  S
C61          C62   1.401       .  A
C61          C66   1.399       .  A
C61         C605   1.497       .  S
C62          C63   1.409       .  A
C62          H67   1.081       .  S
C63          C64   1.420       .  A
C63         C592   1.510       .  S
C64          C65   1.423       .  A
C64          H68   1.082       .  S
C65          C66   1.411       .  A
C65         C585   1.508       .  S
C66          H69   1.080       .  S
C70          C71   1.400       .  A
C70          C75   1.391       .  A
C70         C662   1.486       .  S
C71          C72   1.411       .  A
C71          H76   1.079       .  S
C72          C73   1.429       .  A
C72         C572   1.520       .  S
C73          C74   1.426       .  A
C73          H77   1.081       .  S
C74          C75   1.402       .  A
C74         C562   1.506       .  S
C75          H78   1.083       .  S
C79          C80   1.407       .  A
C79          C84   1.401       .  A
C79         C675   1.502       .  S
C80          C81   1.413       .  A
C80          H85   1.082       .  S
C81          C82   1.424       .  A
C81         C552   1.515       .  S
C82          C83   1.421       .  A
C82          H86   1.082       .  S
C83          C84   1.409       .  A
C83         C545   1.513       .  S
C84          H87   1.078       .  S
C88          C89   1.403       .  A
C88          C93   1.397       .  A
C88         C615   1.494       .  S
C89          C90   1.413       .  A
C89          H94   1.079       .  S
C90          C91   1.423       .  A
C90         C532   1.516       .  S
C91          C92   1.416       .  A
C91          H95   1.078       .  S
C92          C93   1.400       .  A
C92         C522   1.501       .  S
C93          H96   1.083       .  S
C97          C98   1.399       .  A
C97         C102   1.403       .  A
C97         C625   1.492       .  S
C98          C99   1.409       .  A
C98         H103   1.081       .  S
C99         C100   1.421       .  A
C99         C512   1.510       .  S
C100        C101   1.419       .  A
C100        H104   1.078       .  S
C101        C102   1.407       .  A
C101        C502   1.509       .  S
C102        H105   1.082       .  S
C106        C107   1.398       .  A
C106        C111   1.398       .  A
C106        C635   1.488       .  S
C107        C108   1.410       .  A
C107        H112   1.080       .  S
C108        C109   1.427       .  A
C108        C492   1.511       .  S
C109        C110   1.421       .  A
C109        H113   1.082       .  S
C110        C111   1.404       .  A
C110        C485   1.509       .  S
C111        H114   1.083       .  S
C115        C116   1.394       .  D
C115        C495   1.507       .  S
C115        C535   1.511       .  S
C116        C465   1.521       .  S
C116        C475   1.508   1_556  S
C117        C118   1.382   1_456  D
C117        C482   1.500       .  S
C117        C555   1.509       .  S
C118        C442   1.513       .  S
C118        C452   1.505       .  S
C119        C120   1.378       .  D
C119        C422   1.507       .  S
C119        C432   1.495       .  S
C120        C515   1.507       .  S
C120        C595   1.507       .  S
C121        C122   1.395   1_655  D
C121        C402   1.504       .  S
C121        C412   1.521       .  S
C122        C505   1.505       .  S
C122        C575   1.526       .  S
C123        C124   1.389   1_566  D
C123        C525   1.494       .  S
C123        C542   1.518       .  S
C124        C385   1.522       .  S
C124        C395   1.496       .  S
C125        C126   1.386   1_565  D
C125        C565   1.501       .  S
C125        C582   1.515       .  S
C126        C362   1.499       .  S
C126        C372   1.508       .  S
O127       Ni135   1.899       .  S
O127        C137   1.278       .  A
O128       Ni135   1.909       .  S
O128        C138   1.280       .  A
O129       Ni135   1.914       .  S
O129        C139   1.282       .  A
O130       Ni135   1.913       .  S
O130        C140   1.280       .  A
O131       Ni136   1.921       .  S
O131        C140   1.282       .  A
O132       Ni136   1.920       .  S
O132        C139   1.281       .  A
O133       Ni136   1.882       .  S
O133        C138   1.275       .  A
O134       Ni136   1.882       .  S
O134        C137   1.277       .  A
Ni135      Ni136   2.392       .  S
C137        C352   1.457       .  S
C138        C322   1.455       .  S
C139        C342   1.477       .  S
C140        C332   1.472       .  S
C141        C142   1.399       .  A
C141        C146   1.389       .  A
C141        C355   1.442       .  S
C142        C143   1.396       .  A
C142        H147   1.083       .  S
C143        C144   1.413       .  A
C143        C312   1.512       .  S
C144        C145   1.415       .  A
C144        H148   1.077       .  S
C145        C146   1.393       .  A
C145        C302   1.488       .  S
C146        H149   1.085       .  S
O150       Ni158   1.900       .  S
O150        C160   1.280       .  A
O151       Ni158   1.885       .  S
O151        C161   1.275       .  A
O152       Ni158   1.913       .  S
O152        C162   1.280       .  A
O153       Ni158   1.922       .  S
O153        C163   1.283       .  A
O154       Ni159   1.924       .  S
O154        C163   1.282       .  A
O155       Ni159   1.911       .  S
O155        C162   1.281       .  A
O156       Ni159   1.898       .  S
O156        C161   1.280       .  A
O157       Ni159   1.907       .  S
O157        C160   1.280       .  A
Ni158      Ni159   2.390       .  S
C160        C315   1.471       .  S
C161        C272   1.457       .  S
C162        C285   1.467       .  S
C163        C292   1.488       .  S
O164       Ni172   1.880       .  S
O164        C174   1.272       .  A
O165       Ni172   1.871       .  S
O165        C175   1.274       .  A
O166       Ni172   1.929       .  S
O166        C176   1.284       .  A
O167       Ni172   1.925       .  S
O167        C177   1.284       .  A
O168       Ni173   1.899       .  S
O168        C177   1.277       .  A
O169       Ni173   1.917       .  S
O169        C176   1.280       .  A
O170       Ni173   1.900       .  S
O170        C175   1.277       .  A
O171       Ni173   1.914       .  S
O171        C174   1.285       .  A
Ni172      Ni173   2.396       .  S
C174        C305   1.456       .  S
C175        C242   1.439       .  S
C176        C255   1.479       .  S
C177        C262   1.463       .  S
C178        C179   1.396       .  A
C178        C183   1.400       .  A
C178        C335   1.492       .  S
C179        C180   1.406       .  A
C179        H184   1.082       .  S
C180        C181   1.423       .  A
C180        C455   1.508       .  S
C181        C182   1.428       .  A
C181        H185   1.081       .  S
C182        C183   1.412       .  A
C182        C382   1.517       .  S
C183        H186   1.079       .  S
C187        C188   1.402       .  A
C187        C192   1.407       .  A
C187        C252   1.503       .  S
C188        C189   1.405       .  A
C188        H193   1.080       .  S
C189        C190   1.423       .  A
C189        C472   1.518       .  S
C190        C191   1.425       .  A
C190        H194   1.081       .  S
C191        C192   1.412       .  A
C191        C445   1.514       .  S
C192        H195   1.081       .  S
C196        C197   1.398       .  A
C196        C201   1.398       .  A
C196        C282   1.494       .  S
C197        C198   1.410       .  A
C197        H202   1.078       .  S
C198        C199   1.419       .  A
C198        C462   1.514       .  S
C199        C200   1.421       .  A
C199        H203   1.078   1_554  S
C200        C201   1.407       .  A
C200        C392   1.504       .  S
C201        H204   1.079       .  S
C205        C206   1.395       .  A
C205        C210   1.404       .  A
C205        C265   1.492       .  S
C206        C207   1.398       .  A
C206        H211   1.084       .  S
C207        C208   1.416       .  A
C207        C435   1.493       .  S
C208        C209   1.424       .  A
C208        H212   1.082       .  S
C209        C210   1.412       .  A
C209        C405   1.509       .  S
C210        H213   1.079       .  S
C214        C215   1.403       .  A
C214        C219   1.396       .  A
C214        C345   1.494       .  S
C215        C216   1.416       .  A
C215        H220   1.079       .  S
C216        C217   1.429       .  A
C216        C415   1.523       .  S
C217        C218   1.421       .  A
C217        H221   1.078       .  S
C218        C219   1.401       .  A
C218        C365   1.508       .  S
C219        H222   1.083       .  S
C223        C224   1.408       .  A
C223        C228   1.406       .  A
C223        C295   1.509       .  S
C224        C225   1.410       .  A
C224        H229   1.079       .  S
C225        C226   1.418       .  A
C225        C425   1.507       .  S
C226        C227   1.416       .  A
C226        H230   1.082       .  S
C227        C228   1.410       .  A
C227        C375   1.508       .  S
C228        H231   1.080       .  S
C232        C233   1.402       .  A
C232        C237   1.398   1_445  A
C232        C325   1.480   1_455  S
C233        C234   1.400       .  A
C233        H238   1.082       .  S
C234        C235   1.388   1_545  A
C234        C275   1.457       .  S
C235        C236   1.383       .  A
C235        H239   1.084       .  S
C236        C237   1.395   1_455  A
C236        C245   1.441   1_455  S
C237        H240   1.081       .  S
C241        C242   1.402       .  A
C241        C246   1.376       .  A
C241        H248   1.084       .  S
C242        C243   1.398       .  A
C243        C244   1.391       .  A
C243        F250   1.357       .  S
C244        C245   1.402       .  A
C244        H249   1.083   1_655  S
C245        C246   1.395       .  A
C246        F247   1.359       .  S
C251        C252   1.414       .  A
C251        C256   1.398       .  A
C251        H258   1.082       .  S
C252        C253   1.412       .  A
C253        C254   1.404       .  A
C253        F260   1.357       .  S
C254        C255   1.405       .  A
C254        H259   1.084       .  S
C255        C256   1.399       .  A
C256        F257   1.356       .  S
C261        C262   1.404       .  A
C261        C266   1.400       .  A
C261        H268   1.083       .  S
C262        C263   1.397       .  A
C263        C264   1.391       .  A
C263        F270   1.358       .  S
C264        C265   1.413       .  A
C264        H269   1.081       .  S
C265        C266   1.409       .  A
C266        F267   1.357       .  S
C271        C272   1.402       .  A
C271        C276   1.386       .  A
C271        H278   1.083       .  S
C272        C273   1.407       .  A
C273        C274   1.384       .  A
C273        F280   1.358       .  S
C274        C275   1.398       .  A
C274        H279   1.083   1_545  S
C275        C276   1.404       .  A
C276        F277   1.358       .  S
C281        C282   1.408       .  A
C281        C286   1.389       .  A
C281        H288   1.082       .  S
C282        C283   1.413       .  A
C283        C284   1.402       .  A
C283        F290   1.357       .  S
C284        C285   1.402       .  A
C284        H289   1.083       .  S
C285        C286   1.403       .  A
C286        F287   1.359       .  S
C291        C292   1.405       .  A
C291        C296   1.401       .  A
C291        H298   1.083       .  S
C292        C293   1.405       .  A
C293        C294   1.401       .  A
C293        F300   1.353       .  S
C294        C295   1.412       .  A
C294        H299   1.081       .  S
C295        C296   1.415       .  A
C296        F297   1.357       .  S
C301        C302   1.406       .  A
C301        C306   1.393       .  A
C301        H308   1.083       .  S
C302        C303   1.407       .  A
C303        C304   1.398       .  A
C303        F310   1.357       .  S
C304        C305   1.407       .  A
C304        H309   1.083       .  S
C305        C306   1.405       .  A
C306        F307   1.358       .  S
C311        C312   1.410       .  A
C311        C316   1.408       .  A
C311        H318   1.080       .  S
C312        C313   1.408       .  A
C313        C314   1.401       .  A
C313        F320   1.356       .  S
C314        C315   1.411       .  A
C314        H319   1.083       .  S
C315        C316   1.413       .  A
C316        F317   1.357       .  S
C321        C322   1.400       .  A
C321        C326   1.394       .  A
C321        H328   1.084       .  S
C322        C323   1.400       .  A
C323        C324   1.381   1_655  A
C323        F330   1.358   1_655  S
C324        C325   1.407   1_455  A
C324        H329   1.081       .  S
C325        C326   1.412       .  A
C326        F327   1.357   1_545  S
C331        C332   1.401       .  A
C331        C336   1.398       .  A
C331        H338   1.083       .  S
C332        C333   1.404       .  A
C333        C334   1.398       .  A
C333        F340   1.358       .  S
C334        C335   1.408       .  A
C334        H339   1.083       .  S
C335        C336   1.411       .  A
C336        F337   1.357       .  S
C341        C342   1.401       .  A
C341        C346   1.391       .  A
C341        H348   1.084       .  S
C342        C343   1.407       .  A
C343        C344   1.404       .  A
C343        F350   1.357       .  S
C344        C345   1.409       .  A
C344        H349   1.083       .  S
C345        C346   1.412       .  A
C346        F347   1.357       .  S
C351        C352   1.404       .  A
C351        C356   1.379       .  A
C351        H358   1.083       .  S
C352        C353   1.408       .  A
C353        C354   1.390       .  A
C353        F360   1.357       .  S
C354        C355   1.396       .  A
C354        H359   1.083       .  S
C355        C356   1.396       .  A
C356        F357   1.359       .  S
C361        C362   1.412       .  A
C361        C366   1.410       .  A
C361        H368   1.082       .  S
C362        C363   1.399       .  A
C363        C364   1.396       .  A
C363        F370   1.358       .  S
C364        C365   1.415       .  A
C364        H369   1.081       .  S
C365        C366   1.409       .  A
C366        F367   1.356       .  S
C371        C372   1.402       .  A
C371        C376   1.401       .  A
C371        H378   1.076       .  S
C372        C373   1.413       .  A
C373        C374   1.408       .  A
C373        F380   1.356       .  S
C374        C375   1.408       .  A
C374        H379   1.082       .  S
C375        C376   1.413       .  A
C376        F377   1.358       .  S
C381        C382   1.407       .  A
C381        C386   1.409   1_554  A
C381        H388   1.081   1_554  S
C382        C383   1.418       .  A
C383        C384   1.402       .  A
C383        F390   1.357       .  S
C384        C385   1.404       .  A
C384        H389   1.074       .  S
C385        C386   1.418   1_554  A
C386        F387   1.355       .  S
C391        C392   1.414       .  A
C391        C396   1.397       .  A
C391        H398   1.082       .  S
C392        C393   1.410   1_554  A
C393        C394   1.404       .  A
C393        F400   1.356       .  S
C394        C395   1.408   1_556  A
C394        H399   1.081       .  S
C395        C396   1.401       .  A
C396        F397   1.358       .  S
C401        C402   1.410       .  A
C401        C406   1.406       .  A
C401        H408   1.083       .  S
C402        C403   1.403       .  A
C403        C404   1.403       .  A
C403        F410   1.357       .  S
C404        C405   1.414       .  A
C404        H409   1.082       .  S
C405        C406   1.410       .  A
C406        F407   1.357       .  S
C411        C412   1.403       .  A
C411        C416   1.402       .  A
C411        H418   1.074       .  S
C412        C413   1.416       .  A
C413        C414   1.409       .  A
C413        F420   1.355       .  S
C414        C415   1.411       .  A
C414        H419   1.079       .  S
C415        C416   1.420       .  A
C416        F417   1.357       .  S
C421        C422   1.409       .  A
C421        C426   1.402       .  A
C421        H428   1.084       .  S
C422        C423   1.407       .  A
C423        C424   1.406       .  A
C423        F430   1.357       .  S
C424        C425   1.414       .  A
C424        H429   1.083       .  S
C425        C426   1.410       .  A
C426        F427   1.357       .  S
C431        C432   1.411       .  A
C431        C436   1.415       .  A
C431        H438   1.083       .  S
C432        C433   1.403       .  A
C433        C434   1.390       .  A
C433        F440   1.358       .  S
C434        C435   1.406       .  A
C434        H439   1.083       .  S
C435        C436   1.408       .  A
C436        F437   1.356       .  S
C441        C442   1.404       .  A
C441        C446   1.409       .  A
C441        H448   1.082       .  S
C442        C443   1.415   1_554  A
C443        C444   1.405   1_556  A
C443        F450   1.357       .  S
C444        C445   1.406       .  A
C444        H449   1.082       .  S
C445        C446   1.420       .  A
C446        F447   1.357       .  S
C451        C452   1.411   1_556  A
C451        C456   1.417       .  A
C451        H458   1.083       .  S
C452        C453   1.404       .  A
C453        C454   1.393       .  A
C453        F460   1.358       .  S
C454        C455   1.409       .  A
C454        H459   1.083       .  S
C455        C456   1.413   1_554  A
C456        F457   1.356       .  S
C461        C462   1.409       .  A
C461        C466   1.395       .  A
C461        H468   1.081       .  S
C462        C463   1.412   1_554  A
C463        C464   1.409       .  A
C463        F470   1.356       .  S
C464        C465   1.416       .  A
C464        H469   1.080       .  S
C465        C466   1.407   1_556  A
C466        F467   1.343       .  S
C471        C472   1.410       .  A
C471        C476   1.411   1_554  A
C471        H478   1.081   1_554  S
C472        C473   1.421       .  A
C473        C474   1.399       .  A
C473        F480   1.357       .  S
C474        C475   1.398       .  A
C474        H479   1.083       .  S
C475        C476   1.415   1_554  A
C476        F477   1.357       .  S
C481        C482   1.410   1_554  A
C481        C486   1.415   1_554  A
C481        H488   1.083       .  S
C482        C483   1.402       .  A
C483        C484   1.396       .  A
C483        F490   1.358       .  S
C484        C485   1.412       .  A
C484        H489   1.082       .  S
C485        C486   1.412       .  A
C486        F487   1.357   1_556  S
C491        C492   1.406       .  A
C491        C496   1.405   1_556  A
C491        H498   1.082   1_556  S
C492        C493   1.419       .  A
C493        C494   1.404       .  A
C493        F500   1.357       .  S
C494        C495   1.401       .  A
C494        H499   1.083       .  S
C495        C496   1.416   1_556  A
C496        F497   1.357       .  S
C501        C502   1.414       .  A
C501        C506   1.400       .  A
C501        H508   1.082       .  S
C502        C503   1.411       .  A
C503        C504   1.408       .  A
C503        F510   1.356       .  S
C504        C505   1.410       .  A
C504        H509   1.082       .  S
C505        C506   1.402       .  A
C506        F507   1.358       .  S
C511        C512   1.416       .  A
C511        C516   1.401       .  A
C511        H518   1.082       .  S
C512        C513   1.411       .  A
C513        C514   1.402       .  A
C513        F520   1.356       .  S
C514        C515   1.410       .  A
C514        H519   1.083       .  S
C515        C516   1.405       .  A
C516        F517   1.356       .  S
C521        C522   1.414       .  A
C521        C526   1.394       .  A
C521        H528   1.082       .  S
C522        C523   1.408   1_556  A
C523        C524   1.406       .  A
C523        F530   1.356       .  S
C524        C525   1.410   1_554  A
C524        H529   1.083       .  S
C525        C526   1.398       .  A
C526        F527   1.358       .  S
C531        C532   1.409       .  A
C531        C536   1.404   1_556  A
C531        H538   1.079   1_556  S
C532        C533   1.418       .  A
C533        C534   1.399       .  A
C533        F540   1.357       .  S
C534        C535   1.401       .  A
C534        H539   1.073       .  S
C535        C536   1.413   1_556  A
C536        F537   1.352       .  S
C541        C542   1.404       .  A
C541        C546   1.401       .  A
C541        H548   1.072       .  S
C542        C543   1.417   1_556  A
C543        C544   1.411   1_554  A
C543        F550   1.355       .  S
C544        C545   1.408       .  A
C544        H549   1.082   1_556  S
C545        C546   1.414       .  A
C546        F547   1.358       .  S
C551        C552   1.417       .  A
C551        C556   1.410       .  A
C551        H558   1.082       .  S
C552        C553   1.410       .  A
C553        C554   1.405   1_556  A
C553        F560   1.357   1_556  S
C554        C555   1.410   1_554  A
C554        H559   1.083       .  S
C555        C556   1.406       .  A
C556        F557   1.357       .  S
C561        C562   1.407       .  A
C561        C566   1.411       .  A
C561        H568   1.083       .  S
C562        C563   1.417       .  A
C563        C564   1.394       .  A
C563        F570   1.358       .  S
C564        C565   1.399       .  A
C564        H569   1.084       .  S
C565        C566   1.415       .  A
C566        F567   1.355       .  S
C571        C572   1.408       .  A
C571        C576   1.412       .  A
C571        H578   1.081       .  S
C572        C573   1.418       .  A
C573        C574   1.403       .  A
C573        F580   1.357       .  S
C574        C575   1.404       .  A
C574        H579   1.070   1_455  S
C575        C576   1.420       .  A
C576        F577   1.354       .  S
C581        C582   1.405       .  A
C581        C586   1.401       .  A
C581        H588   1.075       .  S
C582        C583   1.416       .  A
C583        C584   1.407       .  A
C583        F590   1.355       .  S
C584        C585   1.406       .  A
C584        H589   1.082       .  S
C585        C586   1.414       .  A
C586        F587   1.358       .  S
C591        C592   1.413       .  A
C591        C596   1.416       .  A
C591        H598   1.082       .  S
C592        C593   1.414       .  A
C593        C594   1.393       .  A
C593        F600   1.358       .  S
C594        C595   1.402       .  A
C594        H599   1.084       .  S
C595        C596   1.412       .  A
C596        F597   1.356       .  S
C601        C602   1.401       .  A
C601        C606   1.405       .  A
C601        H608   1.080       .  S
C602        C603   1.405       .  A
C603        C604   1.395       .  A
C603        F610   1.358       .  S
C604        C605   1.405       .  A
C604        H609   1.082       .  S
C605        C606   1.416       .  A
C606        F607   1.357       .  S
C611        C612   1.403       .  A
C611        C616   1.402       .  A
C611        H618   1.083       .  S
C612        C613   1.402       .  A
C613        C614   1.390       .  A
C613        F620   1.358       .  S
C614        C615   1.409       .  A
C614        H619   1.081       .  S
C615        C616   1.412       .  A
C616        F617   1.357       .  S
C621        C622   1.405       .  A
C621        C626   1.404       .  A
C621        H628   1.083       .  S
C622        C623   1.410       .  A
C623        C624   1.392       .  A
C623        F630   1.358       .  S
C624        C625   1.403       .  A
C624        H629   1.083       .  S
C625        C626   1.413       .  A
C626        F627   1.357       .  S
C631        C632   1.402       .  A
C631        C636   1.389       .  A
C631        H638   1.084       .  S
C632        C633   1.406       .  A
C633        C634   1.405       .  A
C633        F640   1.357       .  S
C634        C635   1.409       .  A
C634        H639   1.083       .  S
C635        C636   1.408       .  A
C636        F637   1.358       .  S
C641        C642   1.414       .  A
C641        C646   1.408       .  A
C641        H648   1.078       .  S
C642        C643   1.406       .  A
C643        C644   1.400       .  A
C643        F650   1.357       .  S
C644        C645   1.412       .  A
C644        H649   1.083       .  S
C645        C646   1.406       .  A
C646        F647   1.357       .  S
C651        C652   1.406       .  A
C651        C656   1.391       .  A
C651        H658   1.083       .  S
C652        C653   1.406       .  A
C653        C654   1.383       .  A
C653        F660   1.358       .  S
C654        C655   1.399       .  A
C654        H659   1.084       .  S
C655        C656   1.400       .  A
C656        F657   1.358       .  S
C661        C662   1.412       .  A
C661        C666   1.404       .  A
C661        H668   1.083       .  S
C662        C663   1.406       .  A
C663        C664   1.387       .  A
C663        F670   1.358       .  S
C664        C665   1.405       .  A
C664        H669   1.084       .  S
C665        C666   1.404       .  A
C666        F667   1.357       .  S
C671        C672   1.399       .  A
C671        C676   1.405       .  A
C671        H678   1.078       .  S
C672        C673   1.407       .  A
C673        C674   1.399       .  A
C673        F680   1.358       .  S
C674        C675   1.407       .  A
C674        H679   1.082       .  S
C675        C676   1.417       .  A
C676        F677   1.357       .  S
C681        C682   1.406       .  A
C681        C686   1.393       .  A
C681        H688   1.083       .  S
C682        C683   1.405       .  A
C683        C684   1.397       .  A
C683        F690   1.357       .  S
C684        C685   1.409       .  A
C684        H689   1.083       .  S
C685        C686   1.404       .  A
C686        F687   1.357       .  S
C691        C692   1.405   1_455  A
C691        C696   1.390       .  A
C691        H698   1.083       .  S
C692        C693   1.416       .  A
C693        C694   1.390   1_655  A
C693        F700   1.357       .  S
C694        C695   1.392       .  A
C694        H699   1.084       .  S
C695        C696   1.401       .  A
C696        F697   1.359       .  S
C701        C702   1.404       .  A
C701        C706   1.387       .  A
C701        H708   1.083       .  S
C702        C703   1.401       .  A
C703        C704   1.389       .  A
C703        F710   1.358       .  S
C704        C705   1.404       .  A
C704        H709   1.083       .  S
C705        C706   1.402       .  A
C706        F707   1.358       .  S
C711        C712   1.398       .  A
C711        C716   1.380       .  A
C711        H718   1.084       .  S
C712        C713   1.404       .  A
C713        C714   1.394       .  A
C713        F720   1.357   1_455  S
C714        C715   1.401       .  A
C714        H719   1.083       .  S
C715        C716   1.405       .  A
C716        F717   1.359       .  S
