geometry optimzed in LAMMPS
_audit_creation_date              2020-12-01 
_audit_creation_method            'lammps2cif' 
_symmetry_space_group_name_H-M    'P1' 
_symmetry_Int_Tables_number       1 
_symmetry_cell_setting            triclinic 
loop_ 
_symmetry_equiv_pos_as_xyz 
  x,y,z 
_cell_length_a                    89.15582701 
_cell_length_b                    89.27153564772333 
_cell_length_c                    89.25293411215897 
_cell_angle_alpha                 90.23410654757177 
_cell_angle_beta                  90.09547701898771 
_cell_angle_gamma                 89.83528681008387 
loop_ 
_atom_site_label 
_atom_site_type_symbol 
_atom_site_fract_x 
_atom_site_fract_y 
_atom_site_fract_z 
_atom_site_charge 
N1          N  0.78204409  0.20039867  0.44170165    -0.03200
C2          C  0.78081330  0.18841997  0.43234943    -0.00600
C3          C  0.78263409  0.17526034  0.44025694    -0.23400
C4          C  0.78481789  0.17923083  0.45498149    -0.23700
C5          C  0.78426354  0.19471322  0.45566310    -0.00700
H6          H  0.78229025  0.16397015  0.43580661     0.13100
H7          H  0.78642959  0.17161236  0.46425106     0.13200
N8          N  0.74999167  0.28183162  0.44107658    -0.03200
C9          C  0.75032221  0.29390508  0.43178243    -0.00600
C10         C  0.74943787  0.30697930  0.44011592    -0.23400
C11         C  0.74874158  0.30290209  0.45490377    -0.23700
C12         C  0.74919062  0.28742491  0.45529737    -0.00700
H13         H  0.74915027  0.31832055  0.43588368     0.13100
H14         H  0.74787568  0.31045583  0.46438055     0.13200
N15         N  0.72259404  0.25147513  0.54405794    -0.03200
C16         C  0.71079260  0.25304836  0.55364041    -0.00600
C17         C  0.69809315  0.25719465  0.54572736    -0.23400
C18         C  0.70209599  0.25805716  0.53091369    -0.23700
C19         C  0.71718430  0.25459108  0.53012653    -0.00700
H20         H  0.68704822  0.25937601  0.55026947     0.13100
H21         H  0.69482160  0.26113324  0.52169935     0.13200
N22         N  0.80881180  0.23452687  0.54356337    -0.03200
C23         C  0.81989747  0.23222405  0.55379765    -0.00600
C24         C  0.83274255  0.22723938  0.54661652    -0.23400
C25         C  0.82949922  0.22651402  0.53158872    -0.23700
C26         C  0.81473581  0.23094159  0.52999201    -0.00700
H27         H  0.84334434  0.22432351  0.55177615     0.13100
H28         H  0.83694762  0.22265151  0.52281393     0.13200
N29         N  0.71730474  0.22800683  0.94070650    -0.03200
C30         C  0.70607601  0.22477011  0.93088355    -0.00600
C31         C  0.69453287  0.21760610  0.93829104    -0.23400
C32         C  0.69875618  0.21638506  0.95302506    -0.23700
C33         C  0.71282846  0.22277168  0.95430175    -0.00700
H34         H  0.68413735  0.21359086  0.93347723     0.13100
H35         H  0.69240183  0.21093357  0.96175462     0.13200
N36         N  0.80015031  0.25680234  0.93830733    -0.03200
C37         C  0.81289743  0.25534092  0.93003047    -0.00600
C38         C  0.82526773  0.25977261  0.93821460    -0.23400
C39         C  0.82013313  0.26404311  0.95206266    -0.23700
C40         C  0.80476436  0.26217532  0.95189982    -0.00700
H41         H  0.83671929  0.26046996  0.93427714     0.13100
H42         H  0.82682520  0.26852310  0.96115417     0.13200
N43         N  0.74631813  0.20609108  0.04826053    -0.03200
C44         C  0.75008399  0.19413850  0.05689593    -0.00600
C45         C  0.74789417  0.18094362  0.04905944    -0.23400
C46         C  0.74280683  0.18482665  0.03505493    -0.23700
C47         C  0.74192505  0.20025937  0.03484061    -0.00700
H48         H  0.74935762  0.16968188  0.05327251     0.13100
H49         H  0.73963489  0.17721208  0.02613938     0.13200
N50         N  0.77966654  0.28675802  0.04671273    -0.03200
C51         C  0.78110343  0.29908458  0.05562841    -0.00600
C52         C  0.78560121  0.31116097  0.04707632    -0.23400
C53         C  0.78688028  0.30615454  0.03255081    -0.23700
C54         C  0.78324993  0.29109860  0.03254915    -0.00700
H55         H  0.78761024  0.32248618  0.05093893     0.13100
H56         H  0.79043953  0.31275428  0.02306137     0.13200
N57         N  0.80104977  0.94333459  0.25858422    -0.03200
C58         C  0.81277109  0.93369010  0.26029307    -0.00600
C59         C  0.82560610  0.94152079  0.26405718    -0.23400
C60         C  0.82175828  0.95641678  0.26453736    -0.23700
C61         C  0.80663115  0.95728110  0.26124584    -0.00700
H62         H  0.83662142  0.93687140  0.26621435     0.13100
H63         H  0.82913521  0.96562708  0.26732773     0.13200
N64         N  0.72038245  0.94091900  0.22397816    -0.03200
C65         C  0.70823846  0.93172536  0.22421401    -0.00600
C66         C  0.69545028  0.93974638  0.22055817    -0.23400
C67         C  0.69979896  0.95429097  0.21812082    -0.23700
C68         C  0.71515446  0.95473781  0.22015465    -0.00700
H69         H  0.68416453  0.93541604  0.21956039     0.13100
H70         H  0.69260256  0.96345234  0.21471366     0.13200
N71         N  0.77058616  0.04621796  0.28721106    -0.03200
C72         C  0.77091947  0.05583313  0.29904493    -0.00600
C73         C  0.77499491  0.04834027  0.31195541    -0.23400
C74         C  0.77702301  0.03359528  0.30801892    -0.23700
C75         C  0.77416491  0.03253257  0.29282128    -0.00700
H76         H  0.77636581  0.05309320  0.32304637     0.13100
H77         H  0.78014283  0.02456585  0.31546658     0.13200
N78         N  0.74543767  0.04964337  0.20279599    -0.03200
C79         C  0.74727304  0.05898192  0.19094216    -0.00600
C80         C  0.74349261  0.05169561  0.17776069    -0.23400
C81         C  0.73933370  0.03739697  0.18157368    -0.23700
C82         C  0.74064170  0.03639312  0.19696452    -0.00700
H83         H  0.74334936  0.05639908  0.16660465     0.13100
H84         H  0.73555349  0.02872091  0.17396362     0.13200
O85         O  0.75941978  0.29794017  0.16972348    -0.74100
O86         O  0.75800063  0.34076189  0.17013839    -0.74100
O87         O  0.76133843  0.31911947  0.14834199    -0.74200
O88         O  0.75640513  0.31916812  0.19133286    -0.74200
O89         O  0.78126197  0.31926283  0.19386088    -0.74200
O90         O  0.78608137  0.32092592  0.15141700    -0.74100
O91         O  0.78268668  0.34173176  0.17394784    -0.74100
O92         O  0.78430449  0.29858612  0.17187184    -0.74200
Ni93       Ni  0.75790874  0.31928216  0.16972971     1.25400
Ni94       Ni  0.78446457  0.32018843  0.17280362     1.25400
C95         C  0.77203451  0.29114606  0.17079891     0.88100
C96         C  0.76991343  0.34831375  0.17284985     0.88000
C97         C  0.77462708  0.31961405  0.14283519     0.88000
C98         C  0.76815535  0.31901898  0.19967690     0.88200
O99         O  0.73891850  0.31783896  0.29502423    -0.74100
O100        O  0.74009354  0.31651365  0.33828261    -0.74100
O101        O  0.74030698  0.33891287  0.31675306    -0.74200
O102        O  0.73845364  0.29601224  0.31613387    -0.74200
O103        O  0.76341537  0.29485667  0.31569245    -0.74200
O104        O  0.76529712  0.33787940  0.31637015    -0.74100
O105        O  0.76508655  0.31584673  0.33751764    -0.74100
O106        O  0.76387613  0.31670686  0.29472354    -0.74200
Ni107      Ni  0.73854719  0.31742536  0.31663287     1.25400
Ni108      Ni  0.76528687  0.31631273  0.31608016     1.25400
C109        C  0.75132365  0.31742254  0.28775446     0.88100
C110        C  0.75283580  0.31541311  0.34495290     0.88000
C111        C  0.75306335  0.34546936  0.31606137     0.88000
C112        C  0.75060361  0.28833919  0.31585892     0.88200
O113        O  0.77083892  0.19536964  0.17156348    -0.74100
O114        O  0.77049829  0.15241932  0.16973338    -0.74100
O115        O  0.76748803  0.17522076  0.14921875    -0.74200
O116        O  0.77348890  0.17288688  0.19195724    -0.74200
O117        O  0.74873036  0.17396602  0.19517060    -0.74200
O118        O  0.74280453  0.17438683  0.15289223    -0.74100
O119        O  0.74591610  0.15252553  0.17430654    -0.74100
O120        O  0.74598209  0.19557598  0.17410984    -0.74200
Ni121      Ni  0.77147659  0.17392145  0.17046022     1.25400
Ni122      Ni  0.74499257  0.17407259  0.17418830     1.25400
C123        C  0.75845665  0.20258207  0.17281617     0.88100
C124        C  0.75831192  0.14540431  0.17255581     0.88000
C125        C  0.75403072  0.17579978  0.14408172     0.88000
C126        C  0.76198327  0.17309582  0.20059711     0.88200
O127        O  0.76981991  0.17036608  0.29568295    -0.74100
O128        O  0.77388519  0.17088466  0.33843229    -0.74100
O129        O  0.77148305  0.14904560  0.31673505    -0.74200
O130        O  0.77224715  0.19183654  0.31688708    -0.74200
O131        O  0.74738703  0.19250021  0.31934740    -0.74200
O132        O  0.74658288  0.14943598  0.31922838    -0.74100
O133        O  0.74897638  0.17105431  0.34077617    -0.74100
O134        O  0.74493861  0.17099865  0.29801535    -0.74200
Ni135      Ni  0.77273324  0.17046269  0.31692157     1.25400
Ni136      Ni  0.74607420  0.17098402  0.31946925     1.25400
C137        C  0.75671524  0.17074428  0.28979309     0.88100
C138        C  0.76210105  0.17147430  0.34662926     0.88000
C139        C  0.75889559  0.14221033  0.31739078     0.88000
C140        C  0.75998682  0.19926291  0.31794468     0.88200
N141        N  0.77410934  0.44486690  0.20495716    -0.03200
C142        C  0.77218198  0.43556755  0.19300799    -0.00600
C143        C  0.77110368  0.44377357  0.17995550    -0.23400
C144        C  0.77232928  0.45858784  0.18394353    -0.23700
C145        C  0.77411886  0.45906865  0.19934705    -0.00700
H146        H  0.76986763  0.43943212  0.16868273     0.13100
H147        H  0.77216484  0.46800422  0.17634649     0.13200
N148        N  0.74415630  0.44236785  0.28684871    -0.03200
C149        C  0.74509858  0.43291239  0.29874571    -0.00600
C150        C  0.74450934  0.44098284  0.31197560    -0.23400
C151        C  0.74332500  0.45582573  0.30814546    -0.23700
C152        C  0.74325341  0.45649566  0.29264451    -0.00700
H153        H  0.74482602  0.43654297  0.32323754     0.13100
H154        H  0.74257082  0.46514731  0.31589944     0.13200
N155        N  0.80303852  0.54638488  0.23747232    -0.03200
C156        C  0.81468836  0.55614542  0.23813671    -0.00600
C157        C  0.82812537  0.54847993  0.23704005    -0.23400
C158        C  0.82466645  0.53355044  0.23572600    -0.23700
C159        C  0.80917474  0.53246134  0.23588447    -0.00700
H160        H  0.83926838  0.55325951  0.23707389     0.13100
H161        H  0.83263919  0.52448996  0.23432619     0.13200
N162        N  0.71750538  0.54514347  0.25548138    -0.03200
C163        C  0.70555692  0.55467184  0.25514932    -0.00600
C164        C  0.69236469  0.54662030  0.25594843    -0.23400
C165        C  0.69627166  0.53173025  0.25665070    -0.23700
C166        C  0.71177477  0.53102555  0.25646820    -0.00700
H167        H  0.68107432  0.55110688  0.25598512     0.13100
H168        H  0.68859788  0.52240995  0.25758657     0.13200
O169        O  0.71218248  0.81433760  0.22014636    -0.74100
O170        O  0.66924000  0.81341482  0.21559515    -0.74100
O171        O  0.69074173  0.83536613  0.21531519    -0.74200
O172        O  0.69091280  0.79286468  0.22011582    -0.74200
O173        O  0.68743478  0.79557578  0.24469143    -0.74200
O174        O  0.68932292  0.83848801  0.24006164    -0.74100
O175        O  0.66685032  0.81755979  0.24013825    -0.74100
O176        O  0.70945407  0.81640693  0.24487737    -0.74200
Ni177      Ni  0.69082965  0.81395397  0.21690699     1.25400
Ni178      Ni  0.68811498  0.81714149  0.24331487     1.25400
C179        C  0.71788250  0.81525625  0.23333780     0.88100
C180        C  0.66099961  0.81504209  0.22726060     0.88000
C181        C  0.69064870  0.84396152  0.22685293     0.88000
C182        C  0.68916613  0.78715121  0.23311684     0.88200
O183        O  0.83251978  0.69312118  0.25429737    -0.74100
O184        O  0.82983013  0.65017618  0.25075095    -0.74100
O185        O  0.85266747  0.67051921  0.25355919    -0.74200
O186        O  0.81002119  0.67302671  0.25184180    -0.74200
O187        O  0.81085363  0.67416672  0.22691718    -0.74200
O188        O  0.85397272  0.67336226  0.22879023    -0.74100
O189        O  0.83188724  0.65222369  0.22595854    -0.74100
O190        O  0.83296440  0.69487640  0.22940035    -0.74200
Ni191      Ni  0.83125452  0.67159083  0.25349083     1.25400
Ni192      Ni  0.83246437  0.67365752  0.22687178     1.25400
C193        C  0.83317856  0.70106291  0.24235689     0.88100
C194        C  0.83017067  0.64415772  0.23766840     0.88000
C195        C  0.86038478  0.67238709  0.24163141     0.88000
C196        C  0.80335429  0.67394760  0.23918179     0.88200
O197        O  0.68582950  0.69169909  0.24009082    -0.74100
O198        O  0.68796762  0.64871042  0.24321374    -0.74100
O199        O  0.66521804  0.66948907  0.24148718    -0.74200
O200        O  0.70806079  0.67120098  0.24146234    -0.74200
O201        O  0.70818344  0.67274699  0.26638732    -0.74200
O202        O  0.66506496  0.67242613  0.26631978    -0.74100
O203        O  0.68707218  0.65086364  0.26808401    -0.74100
O204        O  0.68627284  0.69363434  0.26499337    -0.74200
Ni205      Ni  0.68671419  0.67014624  0.24068483     1.25400
Ni206      Ni  0.68662381  0.67238493  0.26734086     1.25400
C207        C  0.68592001  0.69974306  0.25205576     0.88100
C208        C  0.68819007  0.64272275  0.25626218     0.88000
C209        C  0.65808198  0.67150561  0.25377528     0.88000
C210        C  0.71520416  0.67247585  0.25384153     0.88200
O211        O  0.80996792  0.81700283  0.27083213    -0.74100
O212        O  0.85293298  0.81665986  0.27493620    -0.74100
O213        O  0.83119646  0.83830540  0.27424190    -0.74200
O214        O  0.83146657  0.79559939  0.27185308    -0.74200
O215        O  0.83399114  0.79672894  0.24704947    -0.74200
O216        O  0.83316837  0.83989495  0.24941506    -0.74100
O217        O  0.85520044  0.81792104  0.25009653    -0.74100
O218        O  0.81246669  0.81811924  0.24602786    -0.74200
Ni219      Ni  0.83135151  0.81690257  0.27383881     1.25400
Ni220      Ni  0.83384970  0.81829190  0.24726617     1.25400
C221        C  0.80414805  0.81741875  0.25767731     0.88100
C222        C  0.86110739  0.81652682  0.26311344     0.88000
C223        C  0.83149458  0.84617895  0.26228990     0.88000
C224        C  0.83273128  0.78907127  0.25912456     0.88200
N225        N  0.45792787  0.75268704  0.19956513    -0.03200
C226        C  0.44789701  0.75546580  0.18840309    -0.00600
C227        C  0.45519211  0.76172694  0.17627248    -0.23400
C228        C  0.47005767  0.76285070  0.18005404    -0.23700
C229        C  0.47149881  0.75730995  0.19442659    -0.00700
H230        H  0.45021592  0.76523899  0.16578590     0.13100
H231        H  0.47878030  0.76775361  0.17324425     0.13200
N232        N  0.45286164  0.72751001  0.28359070    -0.03200
C233        C  0.44412305  0.72925322  0.29602458    -0.00600
C234        C  0.45224520  0.72572001  0.30876212    -0.23400
C235        C  0.46636699  0.72167267  0.30415343    -0.23700
C236        C  0.46651498  0.72286110  0.28875278    -0.00700
H237        H  0.44815865  0.72553177  0.32017121     0.13100
H238        H  0.47546035  0.71786096  0.31123838     0.13200
N239        N  0.56186553  0.70346198  0.26068851    -0.03200
C240        C  0.57176552  0.69201010  0.26249862    -0.00600
C241        C  0.56476589  0.67984865  0.26891637    -0.23400
C242        C  0.55003353  0.68385081  0.27102524    -0.23700
C243        C  0.54845755  0.69834926  0.26579328    -0.00700
H244        H  0.56990533  0.66930456  0.27200864     0.13100
H245        H  0.54145201  0.67698993  0.27609211     0.13200
N246        N  0.56589060  0.78116982  0.22001638    -0.03200
C247        C  0.57446742  0.79371893  0.21918590    -0.00600
C248        C  0.56589228  0.80571223  0.21434764    -0.23400
C249        C  0.55161657  0.80040563  0.21204089    -0.23700
C250        C  0.55190087  0.78538274  0.21560759    -0.00700
H251        H  0.56977109  0.81693844  0.21201329     0.13100
H252        H  0.54220661  0.80665542  0.20758497     0.13200
N253        N  0.95721830  0.70095115  0.23376096    -0.03200
C254        C  0.94750037  0.69041660  0.23884616    -0.00600
C255        C  0.95466790  0.67670900  0.24006555    -0.23400
C256        C  0.96911511  0.67873222  0.23530216    -0.23700
C257        C  0.97043328  0.69363907  0.23144946    -0.00700
H258        H  0.94960083  0.66608136  0.24286888     0.13100
H259        H  0.97752674  0.67006743  0.23394825     0.13200
N260        N  0.95818943  0.78620591  0.25561226    -0.03200
C261        C  0.94849639  0.79780049  0.25791446    -0.00600
C262        C  0.95641240  0.81097150  0.25985192    -0.23400
C263        C  0.97136367  0.80740697  0.25880832    -0.23700
C264        C  0.97223385  0.79212266  0.25637272    -0.00700
H265        H  0.95180302  0.82202215  0.26188438     0.13100
H266        H  0.98063092  0.81504965  0.26043989     0.13200
N267        N  0.05962216  0.72881316  0.20308871    -0.03200
C268        C  0.06925639  0.73086620  0.19150825    -0.00600
C269        C  0.06155883  0.72999595  0.17804963    -0.23400
C270        C  0.04678809  0.72725272  0.18145320    -0.23700
C271        C  0.04584690  0.72668748  0.19689523    -0.00700
H272        H  0.06627212  0.73069968  0.16690909     0.13100
H273        H  0.03773489  0.72570828  0.17350830     0.13200
N274        N  0.05957400  0.75659139  0.28609160    -0.03200
C275        C  0.06892719  0.75548547  0.29807417    -0.00600
C276        C  0.06082825  0.75612016  0.31124174    -0.23400
C277        C  0.04600802  0.75756006  0.30727803    -0.23700
C278        C  0.04547281  0.75771710  0.29178276    -0.00700
H279        H  0.06524555  0.75560451  0.32253094     0.13100
H280        H  0.03662488  0.75846124  0.31490764     0.13200
N281        N  0.27101295  0.78430222  0.94004804    -0.03200
C282        C  0.26463278  0.79502581  0.93127277    -0.00600
C283        C  0.26249887  0.80806315  0.93943795    -0.23400
C284        C  0.26762758  0.80535043  0.95369110    -0.23700
C285        C  0.27278145  0.79076528  0.95380139    -0.00700
H286        H  0.25825726  0.81863466  0.93528280     0.13100
H287        H  0.26793144  0.81327531  0.96289462     0.13200
N288        N  0.25429194  0.69858873  0.94444947    -0.03200
C289        C  0.25447008  0.68628322  0.93541328    -0.00600
C290        C  0.25263519  0.67348377  0.94382085    -0.23400
C291        C  0.25129195  0.67799140  0.95847618    -0.23700
C292        C  0.25220986  0.69349673  0.95870178    -0.00700
H293        H  0.25212758  0.66207589  0.93970228     0.13100
H294        H  0.24913465  0.67069217  0.96787431     0.13200
N295        N  0.29821671  0.76685833  0.04906601    -0.03200
C296        C  0.30954224  0.76934510  0.05897070    -0.00600
C297        C  0.32105076  0.77702377  0.05211738    -0.23400
C298        C  0.31674478  0.77926677  0.03750534    -0.23700
C299        C  0.30272047  0.77282264  0.03578434    -0.00700
H300        H  0.33140501  0.78074960  0.05724379     0.13100
H301        H  0.32315746  0.78513006  0.02909520     0.13200
N302        N  0.22349787  0.72047700  0.05181362    -0.03200
C303        C  0.21105081  0.71885329  0.06049457    -0.00600
C304        C  0.20025818  0.71081624  0.05272511    -0.23400
C305        C  0.20622264  0.70735362  0.03893128    -0.23700
C306        C  0.22044258  0.71339364  0.03863045    -0.00700
H307        H  0.18943540  0.70727086  0.05685573     0.13100
H308        H  0.20092527  0.70076851  0.03020987     0.13200
O309        O  0.18538035  0.75067999  0.19359289    -0.74100
O310        O  0.18599904  0.74587631  0.15100560    -0.74100
O311        O  0.16411492  0.74875066  0.17219044    -0.74200
O312        O  0.20705169  0.74770122  0.17272458    -0.74200
O313        O  0.20666247  0.72290145  0.17539809    -0.74200
O314        O  0.16354282  0.72399264  0.17536628    -0.74100
O315        O  0.18552234  0.72103742  0.15370179    -0.74100
O316        O  0.18502187  0.72589560  0.19647531    -0.74200
Ni317      Ni  0.18562053  0.74910862  0.17223825     1.25400
Ni318      Ni  0.18511508  0.72254777  0.17525860     1.25400
C319        C  0.18515166  0.73914096  0.20206517     0.88100
C320        C  0.18637460  0.73268158  0.14537176     0.88000
C321        C  0.15675882  0.73664363  0.17436913     0.88000
C322        C  0.21397108  0.73518832  0.17426021     0.88200
O323        O  0.33206803  0.73744841  0.19312485    -0.74100
O324        O  0.33187384  0.74140937  0.15046028    -0.74100
O325        O  0.35358362  0.74118750  0.17231073    -0.74200
O326        O  0.31040555  0.73788807  0.17180750    -0.74200
O327        O  0.30869086  0.76261213  0.17489194    -0.74200
O328        O  0.35127894  0.76601901  0.17378461    -0.74100
O329        O  0.32883193  0.76612110  0.15282579    -0.74100
O330        O  0.33074534  0.76225020  0.19570991    -0.74200
Ni331      Ni  0.33207723  0.73859457  0.17178361     1.25400
Ni332      Ni  0.32986672  0.76512560  0.17435706     1.25400
C333        C  0.33152894  0.74912682  0.20147979     0.88100
C334        C  0.32976696  0.75432944  0.14462235     0.88000
C335        C  0.35950262  0.75423431  0.17347196     0.88000
C336        C  0.30244946  0.74979937  0.17347131     0.88200
O337        O  0.20579556  0.75323860  0.31808118    -0.74100
O338        O  0.16281918  0.75522903  0.31692122    -0.74100
O339        O  0.18434663  0.75746811  0.33885198    -0.74200
O340        O  0.18457006  0.75099692  0.29653027    -0.74200
O341        O  0.18317453  0.72634703  0.30012400    -0.74200
O342        O  0.18310799  0.73278254  0.34257504    -0.74100
O343        O  0.16165320  0.73061927  0.32088312    -0.74100
O344        O  0.20461893  0.72854743  0.32149887    -0.74200
Ni345      Ni  0.18438405  0.75511742  0.31752716     1.25400
Ni346      Ni  0.18308004  0.72870034  0.32145563     1.25400
C347        C  0.21230203  0.74053974  0.31976158     0.88100
C348        C  0.15516911  0.74315217  0.31814213     0.88000
C349        C  0.18411323  0.74617816  0.34764106     0.88000
C350        C  0.18385205  0.73762715  0.29132702     0.88200
O351        O  0.33146612  0.76212589  0.29990690    -0.74100
O352        O  0.33056074  0.75595094  0.34236395    -0.74100
O353        O  0.35263787  0.75704688  0.32107067    -0.74200
O354        O  0.30961155  0.76081589  0.32103540    -0.74200
O355        O  0.30766010  0.73623990  0.31708216    -0.74200
O356        O  0.35047310  0.73244697  0.31723370    -0.74100
O357        O  0.32802687  0.73136031  0.33864985    -0.74100
O358        O  0.32953828  0.73751363  0.29615273    -0.74200
Ni359      Ni  0.33119410  0.75985364  0.32125968     1.25400
Ni360      Ni  0.32892393  0.73350865  0.31720738     1.25400
C361        C  0.33064480  0.75085287  0.29101358     0.88100
C362        C  0.32833151  0.74275290  0.34745266     0.88000
C363        C  0.35861331  0.74419817  0.31849628     0.88000
C364        C  0.30153809  0.74907853  0.31911511     0.88200
N365        N  0.25101839  0.78866314  0.54350918    -0.03200
C366        C  0.25470249  0.80016211  0.55284333    -0.00600
C367        C  0.25619002  0.81330161  0.54480884    -0.23400
C368        C  0.25343186  0.80982311  0.53006474    -0.23700
C369        C  0.25031283  0.79469804  0.52953977    -0.00700
H370        H  0.25862802  0.82433114  0.54924457     0.13100
H371        H  0.25340877  0.81754440  0.52074679     0.13200
N372        N  0.27295361  0.70416677  0.54957458    -0.03200
C373        C  0.27469555  0.69226325  0.55889683    -0.00600
C374        C  0.27692640  0.67934566  0.55053497    -0.23400
C375        C  0.27662537  0.68340625  0.53572456    -0.23700
C376        C  0.27430122  0.69870666  0.53539454    -0.00700
H377        H  0.27863721  0.66811750  0.55474596     0.13100
H378        H  0.27852460  0.67606011  0.52623529     0.13200
N379        N  0.29005976  0.72453841  0.43938379    -0.03200
C380        C  0.30222381  0.72331557  0.43027777    -0.00600
C381        C  0.31376317  0.71592096  0.43751581    -0.23400
C382        C  0.30864053  0.71251151  0.45159012    -0.23700
C383        C  0.29414390  0.71792068  0.45248369    -0.00700
H384        H  0.32465183  0.71309974  0.43294500     0.13100
H385        H  0.31479613  0.70666926  0.46025378     0.13200
N386        N  0.21340478  0.76867874  0.44152230    -0.03200
C387        C  0.20292227  0.77135814  0.43081210    -0.00600
C388        C  0.19140609  0.78000521  0.43657047    -0.23400
C389        C  0.19477582  0.78253840  0.45137065    -0.23700
C390        C  0.20823285  0.77530192  0.45423375    -0.00700
H391        H  0.18147073  0.78380529  0.43071058     0.13100
H392        H  0.18796551  0.78876100  0.45927506     0.13200
O393        O  0.27660954  0.81634585  0.69070519    -0.74100
O394        O  0.27724487  0.81624948  0.64764981    -0.74100
O395        O  0.27691127  0.83778493  0.66942466    -0.74200
O396        O  0.27713860  0.79489959  0.66915358    -0.74200
O397        O  0.25214801  0.79484318  0.66885098    -0.74200
O398        O  0.25189038  0.83782143  0.66923604    -0.74100
O399        O  0.25223753  0.81595527  0.64730547    -0.74100
O400        O  0.25161564  0.81640759  0.69021821    -0.74200
Ni401      Ni  0.27786559  0.81634733  0.66919274     1.25400
Ni402      Ni  0.25108915  0.81629190  0.66880699     1.25400
C403        C  0.26396600  0.81647109  0.69755861     0.88100
C404        C  0.26482732  0.81560029  0.64040027     0.88000
C405        C  0.26439895  0.84483766  0.67006509     0.88000
C406        C  0.26468622  0.78777608  0.66918680     0.88200
O407        O  0.24774997  0.69105199  0.81807915    -0.74100
O408        O  0.23909094  0.64900228  0.81789700    -0.74100
O409        O  0.24175036  0.67044741  0.83952415    -0.74200
O410        O  0.24485197  0.66955305  0.79680306    -0.74200
O411        O  0.26928586  0.66452262  0.79855319    -0.74200
O412        O  0.26621685  0.66560534  0.84159656    -0.74100
O413        O  0.26351881  0.64389419  0.81965913    -0.74100
O414        O  0.27214016  0.68586796  0.82005025    -0.74200
Ni415      Ni  0.24249991  0.67018898  0.81807304     1.25400
Ni416      Ni  0.26865494  0.66475917  0.82010131     1.25400
C417        C  0.26143041  0.69538640  0.81893475     0.88100
C418        C  0.24993129  0.63953525  0.81800919     0.88000
C419        C  0.25346896  0.66852939  0.84762012     0.88000
C420        C  0.25749933  0.66677231  0.79059346     0.88200
O421        O  0.26197423  0.81590947  0.79364770    -0.74100
O422        O  0.26181384  0.81294177  0.83685931    -0.74100
O423        O  0.26587714  0.83572640  0.81626351    -0.74200
O424        O  0.25761953  0.79372436  0.81376797    -0.74200
O425        O  0.28213024  0.78873303  0.81374091    -0.74200
O426        O  0.29041268  0.83089520  0.81615795    -0.74100
O427        O  0.28634156  0.80821940  0.83635026    -0.74100
O428        O  0.28647841  0.81096525  0.79370668    -0.74200
Ni429      Ni  0.26094745  0.81482172  0.81521224     1.25400
Ni430      Ni  0.28719886  0.80960030  0.81502559     1.25400
C431        C  0.27432607  0.81371939  0.78656996     0.88100
C432        C  0.27402500  0.80927597  0.84363497     0.88000
C433        C  0.27948586  0.84028608  0.81589271     0.88000
C434        C  0.26846070  0.78430043  0.81336408     0.88200
O435        O  0.26308190  0.67003545  0.69521405    -0.74100
O436        O  0.26526161  0.67294219  0.65235884    -0.74100
O437        O  0.26329380  0.64998904  0.67253788    -0.74200
O438        O  0.26490402  0.69272905  0.67507010    -0.74200
O439        O  0.28987670  0.69184832  0.67554527    -0.74200
O440        O  0.28818443  0.64885940  0.67503674    -0.74100
O441        O  0.29015426  0.67079656  0.65370339    -0.74100
O442        O  0.28804000  0.66985416  0.69655460    -0.74200
Ni443      Ni  0.26325118  0.67143654  0.67373723     1.25400
Ni444      Ni  0.28996371  0.67029647  0.67521239     1.25400
C445        C  0.27520432  0.66935762  0.70295324     0.88100
C446        C  0.27813934  0.67264576  0.64600255     0.88000
C447        C  0.27539442  0.64240178  0.67412976     0.88000
C448        C  0.27760661  0.69938857  0.67530043     0.88200
O449        O  0.83563841  0.22505365  0.69302008    -0.74100
O450        O  0.83474068  0.22081196  0.65038108    -0.74100
O451        O  0.85665648  0.22150812  0.67169638    -0.74200
O452        O  0.81381788  0.22434466  0.67192342    -0.74200
O453        O  0.81509952  0.24913661  0.66954130    -0.74200
O454        O  0.85823966  0.24630292  0.66946464    -0.74100
O455        O  0.83595612  0.24560610  0.64782624    -0.74100
O456        O  0.83700899  0.24985744  0.69073014    -0.74200
Ni457      Ni  0.83517673  0.22207709  0.67179458     1.25400
Ni458      Ni  0.83668174  0.24862236  0.66924362     1.25400
C459        C  0.83652642  0.23811610  0.69894138     0.88100
C460        C  0.83471588  0.23247336  0.64206078     0.88000
C461        C  0.86454643  0.23346389  0.67117845     0.88000
C462        C  0.80734288  0.23713090  0.67082282     0.88200
O463        O  0.69209318  0.21897797  0.79164246    -0.74100
O464        O  0.69183296  0.21497706  0.83425386    -0.74100
O465        O  0.67062220  0.21404996  0.81237706    -0.74200
O466        O  0.71318255  0.21992082  0.81347090    -0.74200
O467        O  0.70980501  0.24455495  0.81580042    -0.74200
O468        O  0.66706845  0.23870677  0.81448659    -0.74100
O469        O  0.68857986  0.23961446  0.83686116    -0.74100
O470        O  0.68865146  0.24361266  0.79388897    -0.74200
Ni471      Ni  0.69202906  0.21613166  0.81287737     1.25400
Ni472      Ni  0.68835002  0.24250831  0.81539840     1.25400
C473        C  0.69044341  0.23191246  0.78568625     0.88100
C474        C  0.69061190  0.22660617  0.84261925     0.88000
C475        C  0.66184048  0.22542698  0.81278786     0.88000
C476        C  0.71855415  0.23317028  0.81477767     0.88200
O477        O  0.71157235  0.24046417  0.66921548    -0.74100
O478        O  0.66840159  0.24124926  0.66903908    -0.74100
O479        O  0.69066653  0.24216360  0.64735558    -0.74200
O480        O  0.68978945  0.23945285  0.69033581    -0.74200
O481        O  0.68993905  0.26436085  0.69204631    -0.74200
O482        O  0.69106262  0.26706307  0.64917889    -0.74100
O483        O  0.66898654  0.26620142  0.67027100    -0.74100
O484        O  0.71192853  0.26536027  0.67103064    -0.74200
Ni485      Ni  0.69003813  0.23993712  0.66886545     1.25400
Ni486      Ni  0.69046151  0.26661118  0.67066326     1.25400
C487        C  0.71886736  0.25279855  0.67018741     0.88100
C488        C  0.66162319  0.25390841  0.67014082     0.88000
C489        C  0.69161138  0.25509514  0.64119847     0.88000
C490        C  0.68968785  0.25144719  0.69827850     0.88200
O491        O  0.83295736  0.27090209  0.79250813    -0.74100
O492        O  0.83131051  0.27359313  0.83528847    -0.74100
O493        O  0.85375044  0.27448233  0.81419652    -0.74200
O494        O  0.81087434  0.26997093  0.81343100    -0.74200
O495        O  0.81359217  0.24524011  0.81535407    -0.74200
O496        O  0.85640659  0.24966967  0.81524962    -0.74100
O497        O  0.83433249  0.24888467  0.83702826    -0.74100
O498        O  0.83529455  0.24610273  0.79409723    -0.74200
Ni499      Ni  0.83219235  0.27312143  0.81384801     1.25400
Ni500      Ni  0.83506231  0.24660715  0.81555505     1.25400
C501        C  0.83438904  0.25805033  0.78622404     0.88100
C502        C  0.83165944  0.26163133  0.84318121     0.88000
C503        C  0.86211900  0.26276479  0.81397689     0.88000
C504        C  0.80514725  0.25684620  0.81439617     0.88200
N505        N  0.22358590  0.43439361  0.77075168    -0.03200
C506        C  0.21185244  0.42503228  0.77339231    -0.00600
C507        C  0.20195958  0.43173479  0.78337059    -0.23400
C508        C  0.20776975  0.44548246  0.78701866    -0.23700
C509        C  0.22095464  0.44684212  0.77912059    -0.00700
H510        H  0.19196954  0.42685926  0.78816492     0.13100
H511        H  0.20312133  0.45345593  0.79492353     0.13200
N512        N  0.29900202  0.43688660  0.72513689    -0.03200
C513        C  0.31007342  0.42677966  0.72234039    -0.00600
C514        C  0.32163699  0.43349281  0.71457295    -0.23400
C515        C  0.31770933  0.44825613  0.71278217    -0.23700
C516        C  0.30386349  0.45011405  0.71951286    -0.00700
H517        H  0.33188054  0.42823329  0.71069918     0.13100
H518        H  0.32429926  0.45675322  0.70724596     0.13200
N519        N  0.27929572  0.54668501  0.70623550    -0.03200
C520        C  0.27920490  0.55579359  0.69404184    -0.00600
C521        C  0.28378241  0.54791000  0.68145435    -0.23400
C522        C  0.28682834  0.53355202  0.68598602    -0.23700
C523        C  0.28397456  0.53308272  0.70115509    -0.00700
H524        H  0.28550805  0.55231678  0.67031313     0.13100
H525        H  0.29120826  0.52455621  0.67908779     0.13200
N526        N  0.24839960  0.54230675  0.78838106    -0.03200
C527        C  0.24373277  0.55259979  0.79863914    -0.00600
C528        C  0.23579139  0.54559707  0.80992560    -0.23400
C529        C  0.23563730  0.53060444  0.80657652    -0.23700
C530        C  0.24342747  0.52885558  0.79331514    -0.00700
H531        H  0.23086071  0.55079043  0.81973350     0.13100
H532        H  0.23018031  0.52192459  0.81299095     0.13200
N533        N  0.25177240  0.93994248  0.70304580    -0.03200
C534        C  0.25463119  0.93097128  0.69103643    -0.00600
C535        C  0.25465038  0.93927637  0.67798434    -0.23400
C536        C  0.25183503  0.95385287  0.68201916    -0.23700
C537        C  0.25013997  0.95400034  0.69738335    -0.00700
H538        H  0.25618927  0.93511484  0.66668315     0.13100
H539        H  0.25091116  0.96332387  0.67453876     0.13200
N540        N  0.28416347  0.93591981  0.78369979    -0.03200
C541        C  0.28648123  0.92730520  0.79600769    -0.00600
C542        C  0.29214658  0.93601128  0.80754021    -0.23400
C543        C  0.29326120  0.95040412  0.80217485    -0.23700
C544        C  0.28839098  0.95010272  0.78744052    -0.00700
H545        H  0.29502490  0.93232988  0.81872231     0.13100
H546        H  0.29754573  0.95997730  0.80828456     0.13200
N547        N  0.21539803  0.04176457  0.72700955    -0.03200
C548        C  0.20488471  0.05246264  0.72423209    -0.00600
C549        C  0.19250734  0.04611900  0.71736849    -0.23400
C550        C  0.19542518  0.03109837  0.71594654    -0.23700
C551        C  0.20955195  0.02863575  0.72191210    -0.00700
H552        H  0.18229198  0.05176663  0.71400431     0.13100
H553        H  0.18804977  0.02286942  0.71093427     0.13200
N554        N  0.30130601  0.04238309  0.74725970    -0.03200
C555        C  0.31363845  0.05094985  0.74459968    -0.00600
C556        C  0.32652201  0.04323066  0.74843610    -0.23400
C557        C  0.32210812  0.02941713  0.75345930    -0.23700
C558        C  0.30664293  0.02915287  0.75270749    -0.00700
H559        H  0.33787141  0.04749822  0.74831771     0.13100
H560        H  0.32935349  0.02072397  0.75784453     0.13200
N561        N  0.95879251  0.25659145  0.78209970    -0.03200
C562        C  0.94932724  0.25951322  0.79372263    -0.00600
C563        C  0.95754668  0.26204853  0.80664951    -0.23400
C564        C  0.97242340  0.26068735  0.80289606    -0.23700
C565        C  0.97294913  0.25745614  0.78775108    -0.00700
H566        H  0.95318920  0.26450115  0.81770360     0.13100
H567        H  0.98187394  0.26239377  0.81032955     0.13200
N568        N  0.96229897  0.23661990  0.69693220    -0.03200
C569        C  0.95266532  0.23974692  0.68552201    -0.00600
C570        C  0.96014490  0.23941911  0.67199743    -0.23400
C571        C  0.97484628  0.23597520  0.67511063    -0.23700
C572        C  0.97594317  0.23419519  0.69047905    -0.00700
H573        H  0.95527292  0.24085484  0.66097983     0.13100
H574        H  0.98368680  0.23440313  0.66695399     0.13200
N575        N  0.06222075  0.28072920  0.75391287    -0.03200
C576        C  0.07205525  0.29209216  0.75645753    -0.00600
C577        C  0.06428465  0.30531987  0.75886649    -0.23400
C578        C  0.04928413  0.30203174  0.75773253    -0.23700
C579        C  0.04826651  0.28685931  0.75478061    -0.00700
H580        H  0.06903035  0.31625204  0.76109315     0.13100
H581        H  0.04008357  0.30979082  0.75940858     0.13200
N582        N  0.06345352  0.19852812  0.72216414    -0.03200
C583        C  0.07321523  0.18721259  0.72542984    -0.00600
C584        C  0.06669895  0.17352683  0.72217742    -0.23400
C585        C  0.05264179  0.17641827  0.71666600    -0.23700
C586        C  0.05082585  0.19180013  0.71675009    -0.00700
H587        H  0.07190628  0.16259048  0.72296946     0.13100
H588        H  0.04471264  0.16816459  0.71264426     0.13200
O589        O  0.20779400  0.16359834  0.75813575    -0.74100
O590        O  0.16498685  0.16431290  0.75391328    -0.74100
O591        O  0.18705772  0.14298777  0.75057166    -0.74200
O592        O  0.18615218  0.18469016  0.76143178    -0.74200
O593        O  0.18929320  0.19059001  0.73740704    -0.74200
O594        O  0.18839010  0.14932026  0.72647678    -0.74100
O595        O  0.16732249  0.17145924  0.73012549    -0.74100
O596        O  0.21011821  0.16893675  0.73388242    -0.74200
Ni597      Ni  0.18634884  0.16362639  0.75687166     1.25400
Ni598      Ni  0.18882526  0.17023733  0.73111530     1.25400
C599        C  0.21602669  0.16612227  0.74667302     0.88100
C600        C  0.15910895  0.16871138  0.74155229     0.88000
C601        C  0.18835035  0.13931743  0.73672239     0.88000
C602        C  0.18778567  0.19451283  0.75112808     0.88200
O603        O  0.20832985  0.31428428  0.74434689    -0.74100
O604        O  0.16542651  0.31198698  0.74782584    -0.74100
O605        O  0.18624405  0.33457890  0.74873427    -0.74200
O606        O  0.18775537  0.29224715  0.74331043    -0.74200
O607        O  0.18932001  0.28896779  0.76801283    -0.74200
O608        O  0.18924793  0.33164895  0.77339372    -0.74100
O609        O  0.16772615  0.30981413  0.77260632    -0.74100
O610        O  0.21056469  0.31061452  0.76892959    -0.74200
Ni611      Ni  0.18681098  0.31344157  0.74519769     1.25400
Ni612      Ni  0.18924319  0.31019400  0.77163913     1.25400
C613        C  0.21654097  0.31257255  0.75603666     0.88100
C614        C  0.15954519  0.31006864  0.76078063     0.88000
C615        C  0.18816629  0.34006837  0.76184963     0.88000
C616        C  0.18876221  0.28361451  0.75467233     0.88200
O617        O  0.31185442  0.31225168  0.74698598    -0.74100
O618        O  0.35464700  0.31271134  0.74403551    -0.74100
O619        O  0.33281395  0.33402237  0.74627726    -0.74200
O620        O  0.33358147  0.29103682  0.74444364    -0.74200
O621        O  0.33170771  0.29185570  0.71955948    -0.74200
O622        O  0.33086102  0.33468668  0.72134860    -0.74100
O623        O  0.35296542  0.31315758  0.71908476    -0.74100
O624        O  0.30991875  0.31306581  0.72210945    -0.74200
Ni625      Ni  0.33331028  0.31249210  0.74631371     1.25400
Ni626      Ni  0.33133937  0.31327485  0.71963241     1.25400
C627        C  0.30379177  0.31269767  0.73510408     0.88100
C628        C  0.36082955  0.31245877  0.73111750     0.88000
C629        C  0.33120143  0.34135832  0.73407099     0.88000
C630        C  0.33286020  0.28435477  0.73169613     0.88200
O631        O  0.31362180  0.16680423  0.72991574    -0.74100
O632        O  0.35641598  0.16561365  0.73400823    -0.74100
O633        O  0.33383687  0.14449124  0.73330896    -0.74200
O634        O  0.33564928  0.18777821  0.73087194    -0.74200
O635        O  0.33279594  0.18898498  0.75563450    -0.74200
O636        O  0.33234534  0.14646791  0.75813719    -0.74100
O637        O  0.35412739  0.16804486  0.75879379    -0.74100
O638        O  0.31132436  0.16779714  0.75475663    -0.74200
Ni639      Ni  0.33504049  0.16607838  0.73111144     1.25400
Ni640      Ni  0.33262452  0.16782849  0.75767806     1.25400
C641        C  0.30540535  0.16734792  0.74166445     0.88100
C642        C  0.36228514  0.16729603  0.74701727     0.88000
C643        C  0.33212524  0.13841758  0.74623310     0.88000
C644        C  0.33428397  0.19549042  0.74299341     0.88200
N645        N  0.56357542  0.22459991  0.78490246    -0.03200
C646        C  0.57380486  0.22369769  0.79624589    -0.00600
C647        C  0.56645560  0.22166956  0.80973259    -0.23400
C648        C  0.55136919  0.22141582  0.80666559    -0.23700
C649        C  0.54983292  0.22314481  0.79136553    -0.00700
H650        H  0.57152705  0.22065902  0.82070902     0.13100
H651        H  0.54244860  0.21995775  0.81473527     0.13200
N652        N  0.56501315  0.25334484  0.70214284    -0.03200
C653        C  0.57417444  0.25294569  0.68994701    -0.00600
C654        C  0.56565135  0.25476229  0.67706211    -0.23400
C655        C  0.55096930  0.25635915  0.68143406    -0.23700
C656        C  0.55086688  0.25556872  0.69686078    -0.00700
H657        H  0.56969265  0.25515094  0.66564444     0.13100
H658        H  0.54148206  0.25856240  0.67418131     0.13200
N659        N  0.45780415  0.19838900  0.76086385    -0.03200
C660        C  0.44795632  0.18701517  0.76321239    -0.00600
C661        C  0.45518758  0.17515454  0.77011035    -0.23400
C662        C  0.46993384  0.17921358  0.77181140    -0.23700
C663        C  0.47130930  0.19346004  0.76600416    -0.00700
H664        H  0.45031266  0.16458728  0.77341962     0.13100
H665        H  0.47880693  0.17237572  0.77649625     0.13200
N666        N  0.45567278  0.27741069  0.72260983    -0.03200
C667        C  0.44657069  0.28958711  0.72135290    -0.00600
C668        C  0.45433898  0.30134998  0.71498099    -0.23400
C669        C  0.46869298  0.29634370  0.71241517    -0.23700
C670        C  0.46924221  0.28167119  0.71723673    -0.00700
H671        H  0.44995798  0.31230983  0.71219753     0.13100
H672        H  0.47771999  0.30266325  0.70741365     0.13200
C673        C  0.45518423  0.21164390  0.75213721    -0.04900
C674        C  0.45182776  0.21039590  0.73683005    -0.04900
C675        C  0.44996038  0.22322211  0.72807453    -0.23000
C676        C  0.45149401  0.23749776  0.73451046     0.19200
C677        C  0.45440438  0.23883340  0.75005365     0.16400
C678        C  0.45607594  0.22587663  0.75878512    -0.18000
C679        C  0.45603692  0.25309897  0.75647926    -0.19900
C680        C  0.45559425  0.26586249  0.74746784    -0.12400
C681        C  0.45329467  0.26458135  0.73197096     0.04200
C682        C  0.45073753  0.25042876  0.72560789    -0.24600
H683        H  0.45095012  0.19944841  0.73164906     0.09300
H684        H  0.44767154  0.22197409  0.71620568     0.12900
H685        H  0.45815626  0.22681819  0.77070399     0.12800
H686        H  0.45822332  0.25434816  0.76836818     0.12600
H687        H  0.45766991  0.27674339  0.75244078     0.13200
H688        H  0.44880622  0.24948922  0.71365420     0.15100
C689        C  0.48293119  0.27226526  0.71616266    -0.04900
C690        C  0.48280904  0.25889045  0.70783641    -0.04900
C691        C  0.49626707  0.25170567  0.70404050    -0.23000
C692        C  0.51007761  0.25797284  0.70824052     0.19200
C693        C  0.51025676  0.27104431  0.71723131     0.16400
C694        C  0.49669296  0.27802236  0.72122253    -0.18000
C695        C  0.52400261  0.27758438  0.72110343    -0.19900
C696        C  0.53738465  0.27185999  0.71527641    -0.12400
C697        C  0.53735187  0.25923180  0.70585791     0.04200
C698        C  0.52365125  0.25208666  0.70269834    -0.24600
H699        H  0.47242914  0.25455631  0.70333988     0.09300
H700        H  0.49589117  0.24172944  0.69709307     0.12900
H701        H  0.49685522  0.28845207  0.72749241     0.12800
H702        H  0.52433824  0.28768750  0.72786421     0.12600
H703        H  0.54758186  0.27807030  0.71720095     0.13200
H704        H  0.52349828  0.24254051  0.69514895     0.15100
C705        C  0.53491230  0.22300355  0.78384465    -0.04900
C706        C  0.52326269  0.23169705  0.79000539    -0.04900
C707        C  0.50830382  0.22909040  0.78607552    -0.23000
C708        C  0.50464307  0.21760875  0.77597724     0.19200
C709        C  0.51630134  0.20943112  0.76893835     0.16400
C710        C  0.53135940  0.21218577  0.77290807    -0.18000
C711        C  0.51262708  0.19780204  0.75899467    -0.19900
C712        C  0.49766062  0.19357718  0.75695985    -0.12400
C713        C  0.48605766  0.20098856  0.76466073     0.04200
C714        C  0.48959045  0.21334973  0.77377468    -0.24600
H715        H  0.52570320  0.23999424  0.79854987     0.09300
H716        H  0.49955300  0.23553477  0.79155002     0.12900
H717        H  0.54005438  0.20494074  0.76853579     0.12800
H718        H  0.52137156  0.19141899  0.75343822     0.12600
H719        H  0.49518582  0.18387731  0.75006458     0.13200
H720        H  0.48084058  0.21873983  0.78025753     0.15100
C721        C  0.56636866  0.22723368  0.76928405    -0.04900
C722        C  0.56673255  0.21521924  0.75913090    -0.04900
C723        C  0.56719041  0.21786057  0.74369794    -0.23000
C724        C  0.56803069  0.23256375  0.73826643     0.19200
C725        C  0.56893630  0.24465334  0.74850880     0.16400
C726        C  0.56753688  0.24193545  0.76392691    -0.18000
C727        C  0.57086519  0.25925700  0.74310129    -0.19900
C728        C  0.57106700  0.26194506  0.72767375    -0.12400
C729        C  0.56865428  0.25020167  0.71750054     0.04200
C730        C  0.56749785  0.23547190  0.72282236    -0.24600
H731        H  0.56605839  0.20382858  0.76317604     0.09300
H732        H  0.56675266  0.20843407  0.73602189     0.12900
H733        H  0.56717665  0.25121214  0.77179349     0.12800
H734        H  0.57194581  0.26861604  0.75079330     0.12600
H735        H  0.57229415  0.27329704  0.72366486     0.13200
H736        H  0.56571879  0.22640115  0.71491024     0.15100
C737        C  0.43179988  0.18665452  0.75900544    -0.04900
C738        C  0.42240124  0.19911117  0.76127831    -0.04900
C739        C  0.40686946  0.19792382  0.75906188    -0.23000
C740        C  0.40048766  0.18424152  0.75455531     0.19200
C741        C  0.40992311  0.17180334  0.75175728     0.16400
C742        C  0.42544596  0.17310146  0.75400556    -0.18000
C743        C  0.40365457  0.15816392  0.74702063    -0.19900
C744        C  0.38813176  0.15677497  0.74524988    -0.12400
C745        C  0.37865120  0.16889973  0.74844647     0.04200
C746        C  0.38485309  0.18266310  0.75301375    -0.24600
H747        H  0.42695495  0.20958687  0.76536798     0.09300
H748        H  0.39982042  0.20760094  0.76119599     0.12900
H749        H  0.43259429  0.16344066  0.75209464     0.12800
H750        H  0.41075187  0.14854317  0.74478141     0.12600
H751        H  0.38348224  0.14614956  0.74166378     0.13200
H752        H  0.37750596  0.19209269  0.75531737     0.15100
C753        C  0.37720692  0.31055863  0.73025844    -0.04900
C754        C  0.38676952  0.32154939  0.73613792    -0.04900
C755        C  0.40230790  0.31931412  0.73619068    -0.23000
C756        C  0.40846980  0.30587270  0.73072373     0.19200
C757        C  0.39886977  0.29453651  0.72521915     0.16400
C758        C  0.38328715  0.29704623  0.72483285    -0.18000
C759        C  0.40505812  0.28095388  0.72013338    -0.19900
C760        C  0.42063854  0.27885912  0.71988557    -0.12400
C761        C  0.43027805  0.29033697  0.72465749     0.04200
C762        C  0.42407146  0.30370117  0.73037119    -0.24600
H763        H  0.38219111  0.33188232  0.74062649     0.09300
H764        H  0.40950446  0.32807260  0.74056081     0.12900
H765        H  0.37584730  0.28838728  0.72064574     0.12800
H766        H  0.39786141  0.27209631  0.71596892     0.12600
H767        H  0.42514685  0.26861704  0.71516101     0.13200
H768        H  0.43144174  0.31262088  0.73409511     0.15100
C769        C  0.33342916  0.26777602  0.73098023    -0.04900
C770        C  0.33451325  0.26020923  0.71714589    -0.04900
C771        C  0.33510480  0.24453276  0.71656092    -0.23000
C772        C  0.33456385  0.23613035  0.72979916     0.19200
C773        C  0.33348313  0.24369790  0.74371402     0.16400
C774        C  0.33296603  0.25937635  0.74421621    -0.18000
C775        C  0.33287647  0.23548981  0.75698280    -0.19900
C776        C  0.33325987  0.21991632  0.75654964    -0.12400
C777        C  0.33427789  0.21211609  0.74283770     0.04200
C778        C  0.33499372  0.22034083  0.72942523    -0.24600
H779        H  0.33496061  0.26640850  0.70675398     0.09300
H780        H  0.33594767  0.23899565  0.70576882     0.12900
H781        H  0.33211154  0.26502439  0.75495969     0.12800
H782        H  0.33204491  0.24111591  0.76773447     0.12600
H783        H  0.33269993  0.21397406  0.76708471     0.13200
H784        H  0.33575503  0.21451276  0.71877610     0.15100
C785        C  0.23312495  0.31269422  0.75463659    -0.04900
C786        C  0.24226527  0.31119143  0.76741360    -0.04900
C787        C  0.25788726  0.31094896  0.76613386    -0.23000
C788        C  0.26469326  0.31216347  0.75204414     0.19200
C789        C  0.25565341  0.31373507  0.73912703     0.16400
C790        C  0.23995992  0.31403172  0.74050155    -0.18000
C791        C  0.26246598  0.31490581  0.72503324    -0.19900
C792        C  0.27808674  0.31448940  0.72372729    -0.12400
C793        C  0.28721296  0.31292924  0.73649057     0.04200
C794        C  0.28037805  0.31179385  0.75065552    -0.24600
H795        H  0.23734261  0.31014241  0.77844130     0.09300
H796        H  0.26464166  0.30974402  0.77616491     0.12900
H797        H  0.23308940  0.31517708  0.73053888     0.12800
H798        H  0.25571155  0.31612676  0.71500588     0.12600
H799        H  0.28302141  0.31544890  0.71269699     0.13200
H800        H  0.28723821  0.31059646  0.76062062     0.15100
C801        C  0.28888731  0.16733769  0.74009003    -0.04900
C802        C  0.28219646  0.16807419  0.72583070    -0.04900
C803        C  0.26660908  0.16794012  0.72428887    -0.23000
C804        C  0.25742525  0.16700571  0.73697417     0.19200
C805        C  0.26401923  0.16618441  0.75135723     0.16400
C806        C  0.27967959  0.16640831  0.75282810    -0.18000
C807        C  0.25483450  0.16513131  0.76403316    -0.19900
C808        C  0.23924414  0.16496248  0.76248618    -0.12400
C809        C  0.23255095  0.16591754  0.74824154     0.04200
C810        C  0.24176279  0.16690137  0.73551044    -0.24600
H811        H  0.28901329  0.16878513  0.71582972     0.09300
H812        H  0.26174187  0.16855451  0.71317417     0.12900
H813        H  0.28467318  0.16576371  0.76389015     0.12800
H814        H  0.25970203  0.16446747  0.77514488     0.12600
H815        H  0.23242202  0.16422429  0.77248119     0.13200
H816        H  0.23676850  0.16758245  0.72445089     0.15100
C817        C  0.18789643  0.21064604  0.75482241    -0.04900
C818        C  0.18542808  0.21585650  0.76950070    -0.04900
C819        C  0.18527729  0.23125069  0.77259373    -0.23000
C820        C  0.18757477  0.24162245  0.76104458     0.19200
C821        C  0.19012649  0.23638666  0.74630337     0.16400
C822        C  0.19032350  0.22103905  0.74332898    -0.18000
C823        C  0.19233764  0.24656051  0.73465929    -0.19900
C824        C  0.19190655  0.26186606  0.73751848    -0.12400
C825        C  0.18935431  0.26730725  0.75209388     0.04200
C826        C  0.18727699  0.25710943  0.76388504    -0.24600
H827        H  0.18352449  0.20805568  0.77855432     0.09300
H828        H  0.18328814  0.23503603  0.78396923     0.12900
H829        H  0.19228011  0.21721979  0.73194914     0.12800
H830        H  0.19432264  0.24268381  0.72330852     0.12600
H831        H  0.19363147  0.26946401  0.72825441     0.13200
H832        H  0.18524817  0.26119284  0.77515714     0.15100
C833        C  0.08938192  0.18842893  0.72941445    -0.04900
C834        C  0.09893330  0.19831200  0.72181868    -0.04900
C835        C  0.11457602  0.19672898  0.72293484    -0.23000
C836        C  0.12090103  0.18517298  0.73158487     0.19200
C837        C  0.11135269  0.17570479  0.73984867     0.16400
C838        C  0.09574659  0.17747372  0.73879145    -0.18000
C839        C  0.11752541  0.16424952  0.74864638    -0.19900
C840        C  0.13303405  0.16203173  0.74914689    -0.12400
C841        C  0.14266871  0.17103910  0.74066623     0.04200
C842        C  0.13652855  0.18268991  0.73192795    -0.24600
H843        H  0.09434948  0.20664132  0.71429885     0.09300
H844        H  0.12170643  0.20417857  0.71658986     0.12900
H845        H  0.08847859  0.16979032  0.74471000     0.12800
H846        H  0.11033929  0.15691804  0.75506939     0.12600
H847        H  0.13751009  0.15309854  0.75602368     0.13200
H848        H  0.14390546  0.18988937  0.72555966     0.15100
C849        C  0.06559218  0.26549387  0.74987705    -0.04900
C850        C  0.07131279  0.25547513  0.76051942    -0.04900
C851        C  0.07297342  0.24025142  0.75695890    -0.23000
C852        C  0.06915409  0.23493642  0.74260769     0.19200
C853        C  0.06408039  0.24518120  0.73164879     0.16400
C854        C  0.06217966  0.26034048  0.73541922    -0.18000
C855        C  0.06062930  0.24003290  0.71720194    -0.19900
C856        C  0.06148534  0.22477342  0.71381557    -0.12400
C857        C  0.06542547  0.21434469  0.72488628     0.04200
C858        C  0.06977742  0.21954314  0.73914886    -0.24600
H859        H  0.07394149  0.25937840  0.77171771     0.09300
H860        H  0.07696144  0.23260588  0.76548732     0.12900
H861        H  0.05781090  0.26816208  0.72723198     0.12800
H862        H  0.05693444  0.24776208  0.70861704     0.12600
H863        H  0.05842563  0.22099089  0.70268785     0.13200
H864        H  0.07289669  0.21154295  0.74771217     0.15100
C865        C  0.08871385  0.29143223  0.75623158    -0.04900
C866        C  0.09651045  0.28518128  0.74405485    -0.04900
C867        C  0.11200466  0.28748429  0.74250317    -0.23000
C868        C  0.11993972  0.29605833  0.75312226     0.19200
C869        C  0.11227689  0.30176633  0.76576366     0.16400
C870        C  0.09678182  0.29942852  0.76720650    -0.18000
C871        C  0.12015368  0.31005317  0.77658671    -0.19900
C872        C  0.13548503  0.31278379  0.77487611    -0.12400
C873        C  0.14317825  0.30757831  0.76216316     0.04200
C874        C  0.13532520  0.29917564  0.75129265    -0.24600
H875        H  0.09051725  0.27924706  0.73531454     0.09300
H876        H  0.11769621  0.28292258  0.73278100     0.12900
H877        H  0.09084558  0.30430507  0.77664342     0.12800
H878        H  0.11444818  0.31444162  0.78638255     0.12600
H879        H  0.14133016  0.31912806  0.78344006     0.13200
H880        H  0.14124774  0.29483410  0.74159838     0.15100
C881        C  0.98977780  0.22846750  0.69795221    -0.04900
C882        C  0.99527770  0.23448203  0.71147836    -0.04900
C883        C  0.00837514  0.22866365  0.71808625    -0.23000
C884        C  0.01633500  0.21692116  0.71112518     0.19200
C885        C  0.01098418  0.21111393  0.69736776     0.16400
C886        C  0.99782766  0.21684921  0.69097316    -0.18000
C887        C  0.01881864  0.19957658  0.69015589    -0.19900
C888        C  0.03183720  0.19372837  0.69649270    -0.12400
C889        C  0.03734246  0.19919825  0.71021374     0.04200
C890        C  0.02947378  0.21081617  0.71758239    -0.24600
H891        H  0.98949900  0.24370041  0.71690089     0.09300
H892        H  0.01231627  0.23339861  0.72856894     0.12900
H893        H  0.99373151  0.21211356  0.68053861     0.12800
H894        H  0.01486452  0.19504148  0.67958696     0.12600
H895        H  0.03766701  0.18481865  0.69061014     0.13200
H896        H  0.03343942  0.21493555  0.72831222     0.15100
C897        C  0.98728978  0.25710306  0.77922866    -0.04900
C898        C  0.99965964  0.24947889  0.78536233    -0.04900
C899        C  0.01417367  0.25198762  0.78003357    -0.23000
C900        C  0.01666070  0.26244743  0.76864675     0.19200
C901        C  0.00421682  0.26947338  0.76170794     0.16400
C902        C  0.98957136  0.26658328  0.76688965    -0.18000
C903        C  0.00673416  0.28024501  0.75060965    -0.19900
C904        C  0.02133262  0.28496277  0.74741162    -0.12400
C905        C  0.03372324  0.27875591  0.75494287     0.04200
C906        C  0.03135441  0.26694864  0.76502694    -0.24600
H907        H  0.99815964  0.24214588  0.79487985     0.09300
H908        H  0.02352960  0.24643132  0.78545415     0.12900
H909        H  0.98019392  0.27278925  0.76227663     0.12800
H910        H  0.99738310  0.28571287  0.74509242     0.12600
H911        H  0.02291468  0.29410642  0.73963556     0.13200
H912        H  0.04078378  0.26232033  0.77114759     0.15100
C913        C  0.95500518  0.25377055  0.76669085    -0.04900
C914        C  0.94845841  0.26509792  0.75802099    -0.04900
C915        C  0.94735292  0.26347265  0.74245941    -0.23000
C916        C  0.95259345  0.25037760  0.73541600     0.19200
C917        C  0.95822137  0.23848779  0.74422709     0.16400
C918        C  0.95950414  0.24032345  0.75981136    -0.18000
C919        C  0.96313568  0.22527037  0.73721376    -0.19900
C920        C  0.96334747  0.22420345  0.72158048    -0.12400
C921        C  0.95895785  0.23642316  0.71272527     0.04200
C922        C  0.95307539  0.24928173  0.71971764    -0.24600
H923        H  0.94501377  0.27552037  0.76323822     0.09300
H924        H  0.94288574  0.27264626  0.73589386     0.12900
H925        H  0.96454018  0.23158886  0.76657393     0.12800
H926        H  0.96730432  0.21596988  0.74379381     0.12600
H927        H  0.96773574  0.21414665  0.71635032     0.13200
H928        H  0.94988444  0.25881489  0.71297640     0.15100
C929        C  0.32895621  0.12209205  0.74779274    -0.04900
C930        C  0.32747807  0.11601513  0.76225617    -0.04900
C931        C  0.32304722  0.10119977  0.76432598    -0.23000
C932        C  0.32006752  0.09196623  0.75198826     0.19200
C933        C  0.32166923  0.09770400  0.73733320     0.16400
C934        C  0.32604591  0.11277898  0.73530045    -0.18000
C935        C  0.31910433  0.08813823  0.72504224    -0.19900
C936        C  0.31554081  0.07299622  0.72729640    -0.12400
C937        C  0.31388681  0.06730375  0.74184649     0.04200
C938        C  0.31599557  0.07693326  0.75412459    -0.24600
H939        H  0.32953125  0.12281203  0.77212034     0.09300
H940        H  0.32197682  0.09695285  0.77563034     0.12900
H941        H  0.32701603  0.11726086  0.72407976     0.12800
H942        H  0.32041463  0.09221555  0.71370584     0.12600
H943        H  0.31471274  0.06561129  0.71768773     0.13200
H944        H  0.31529084  0.07245589  0.76538174     0.15100
C945        C  0.22991605  0.04380598  0.73370082    -0.04900
C946        C  0.23231400  0.03981683  0.74868077    -0.04900
C947        C  0.24675144  0.04018498  0.75482494    -0.23000
C948        C  0.25909133  0.04391469  0.74584683     0.19200
C949        C  0.25672700  0.04796062  0.73071898     0.16400
C950        C  0.24207771  0.04835657  0.72488207    -0.18000
C951        C  0.26910480  0.05085724  0.72153152    -0.19900
C952        C  0.28367362  0.04933430  0.72715049    -0.12400
C953        C  0.28619807  0.04534792  0.74215925     0.04200
C954        C  0.27377962  0.04304966  0.75155093    -0.24600
H955        H  0.22298307  0.03621293  0.75551167     0.09300
H956        H  0.24834065  0.03696414  0.76641229     0.12900
H957        H  0.24018023  0.05117619  0.71322909     0.12800
H958        H  0.26753725  0.05373978  0.70985029     0.12600
H959        H  0.29301901  0.05071733  0.71959673     0.13200
H960        H  0.27549644  0.04032106  0.76318850     0.15100
C961        C  0.20541965  0.06854464  0.72840698    -0.04900
C962        C  0.20938289  0.07317562  0.74293364    -0.04900
C963        C  0.20690039  0.08801466  0.74754179    -0.23000
C964        C  0.20029930  0.09840011  0.73772229     0.19200
C965        C  0.19676104  0.09390529  0.72294271     0.16400
C966        C  0.19942194  0.07910130  0.71839397    -0.18000
C967        C  0.19026153  0.10417676  0.71302298    -0.19900
C968        C  0.18726176  0.11881712  0.71767237    -0.12400
C969        C  0.19053150  0.12344363  0.73237820     0.04200
C970        C  0.19704648  0.11313547  0.74240195    -0.24600
H971        H  0.21360456  0.06518795  0.75099052     0.09300
H972        H  0.20971705  0.09124434  0.75891518     0.12900
H973        H  0.19629103  0.07560917  0.70716595     0.12800
H974        H  0.18750060  0.10088989  0.70164904     0.12600
H975        H  0.18237124  0.12656325  0.70972085     0.13200
H976        H  0.19987557  0.11666020  0.75369235     0.15100
C977        C  0.29789394  0.01653134  0.75891284    -0.04900
C978        C  0.29202158  0.01774084  0.77345461    -0.04900
C979        C  0.28719123  0.00503286  0.78117090    -0.23000
C980        C  0.28883614  0.99075134  0.77475936     0.19200
C981        C  0.29453424  0.98939178  0.76005073     0.16400
C982        C  0.29885417  0.00230731  0.75215016    -0.18000
C983        C  0.29687075  0.97508313  0.75394499    -0.19900
C984        C  0.29438190  0.96228064  0.76258558    -0.12400
C985        C  0.28897445  0.96343153  0.77734659     0.04200
C986        C  0.28588216  0.97780067  0.78318996    -0.24600
H987        H  0.29203339  0.02843287  0.77922986     0.09300
H988        H  0.28305206  0.00629672  0.79251435     0.12900
H989        H  0.30397524  0.00122459  0.74118670     0.12800
H990        H  0.30141234  0.97379707  0.74275817     0.12600
H991        H  0.29762360  0.95161729  0.75791439     0.30000
H992        H  0.28184267  0.97892806  0.79458962     0.15100
C993        C  0.24659533  0.96790051  0.70573526    -0.04900
C994        C  0.25650827  0.98008506  0.70512034    -0.04900
C995        C  0.25184934  0.99441038  0.70961241    -0.23000
C996        C  0.23717187  0.99675133  0.71480900     0.19200
C997        C  0.22742942  0.98437266  0.71619357     0.16400
C998        C  0.23207227  0.97015565  0.71130655    -0.18000
C999        C  0.21283113  0.98656776  0.72149200    -0.19900
C1000       C  0.20758565  0.00099459  0.72446792    -0.12400
C1001       C  0.21672277  0.01356472  0.72203926     0.04200
C1002       C  0.23171984  0.01131246  0.71761591    -0.24600
H1003       H  0.26760922  0.97864154  0.70040557     0.09300
H1004       H  0.25951250  0.00373324  0.70846203     0.12900
H1005       H  0.22396129  0.96117421  0.71068150     0.12800
H1006       H  0.20528098  0.97717634  0.72281733     0.12600
H1007       H  0.19605551  0.00238638  0.72802946     0.13200
H1008       H  0.23881780  0.02076499  0.71520468     0.15100
C1009       C  0.25387795  0.93619295  0.71862883    -0.04900
C1010       C  0.24294570  0.93994933  0.72929629    -0.04900
C1011       C  0.24620160  0.93937657  0.74458358    -0.23000
C1012       C  0.26029964  0.93446055  0.74946525     0.19200
C1013       C  0.27076271  0.92890198  0.73890921     0.16400
C1014       C  0.26753450  0.92993723  0.72351242    -0.18000
C1015       C  0.28455636  0.92318114  0.74395112    -0.19900
C1016       C  0.28837329  0.92407642  0.75915337    -0.12400
C1017       C  0.27867298  0.93115662  0.76933082     0.04200
C1018       C  0.26439997  0.93571963  0.76459282    -0.24600
H1019       H  0.23196199  0.94360521  0.72584833     0.09300
H1020       H  0.23783496  0.94314045  0.75255707     0.12900
H1021       H  0.27592068  0.92669420  0.71533517     0.12800
H1022       H  0.29262959  0.91864172  0.73607906     0.12600
H1023       H  0.29940903  0.92049841  0.76277056     0.13200
H1024       H  0.25688734  0.94101214  0.77256283     0.15100
C1025       C  0.27284868  0.54974219  0.72077233    -0.04900
C1026       C  0.25846099  0.55612711  0.72185673    -0.04900
C1027       C  0.25120174  0.55722553  0.73571604    -0.23000
C1028       C  0.25811248  0.55168890  0.74870561     0.19200
C1029       C  0.27277647  0.54566311  0.74778177     0.16400
C1030       C  0.28015782  0.54510267  0.73391584    -0.18000
C1031       C  0.27955295  0.53963768  0.76061138    -0.19900
C1032       C  0.27162265  0.53896949  0.77406865    -0.12400
C1033       C  0.25702375  0.54473865  0.77504339     0.04200
C1034       C  0.25042018  0.55145507  0.76245474    -0.24600
H1035       H  0.25260859  0.55972544  0.71185615     0.09300
H1036       H  0.23996795  0.56186274  0.73617630     0.12900
H1037       H  0.29141614  0.54065000  0.73330585     0.12800
H1038       H  0.29074948  0.53491379  0.76008877     0.12600
H1039       H  0.27672403  0.53368351  0.78372040     0.13200
H1040       H  0.23903913  0.55568253  0.76321436     0.15100
C1041       C  0.29600289  0.46476003  0.72031207    -0.04900
C1042       C  0.28093693  0.46616409  0.71591480    -0.04900
C1043       C  0.27464933  0.48033350  0.71338404    -0.23000
C1044       C  0.28344895  0.49327118  0.71492251     0.19200
C1045       C  0.29833205  0.49196178  0.72027605     0.16400
C1046       C  0.30439985  0.47775991  0.72314146    -0.18000
C1047       C  0.30734466  0.50474540  0.72145702    -0.19900
C1048       C  0.30210050  0.51849754  0.71622119    -0.12400
C1049       C  0.28760332  0.51981298  0.71025547     0.04200
C1050       C  0.27811003  0.50728512  0.71005572    -0.24600
H1051       H  0.27433396  0.45634316  0.71336352     0.09300
H1052       H  0.26321529  0.48110181  0.70932217     0.12900
H1053       H  0.31603184  0.47675503  0.72657861     0.12800
H1054       H  0.31878079  0.50392162  0.72550761     0.12600
H1055       H  0.30965831  0.52797853  0.71605850     0.13200
H1056       H  0.26705137  0.50822189  0.70506939     0.15100
C1057       C  0.31035304  0.41080550  0.72675282    -0.04900
C1058       C  0.29822523  0.40137288  0.72343937    -0.04900
C1059       C  0.29967704  0.38582592  0.72490124    -0.23000
C1060       C  0.31330427  0.37949986  0.72967472     0.19200
C1061       C  0.32532071  0.38897070  0.73376526     0.16400
C1062       C  0.32375467  0.40453605  0.73226515    -0.18000
C1063       C  0.33888901  0.38268078  0.73875640    -0.19900
C1064       C  0.34069407  0.36711631  0.73927654    -0.12400
C1065       C  0.32905601  0.35768026  0.73459475     0.04200
C1066       C  0.31530987  0.36388855  0.72998526    -0.24600
H1067       H  0.28794246  0.40591502  0.71886475     0.09300
H1068       H  0.29032884  0.37872861  0.72179124     0.12900
H1069       H  0.33316556  0.41177413  0.73484813     0.12800
H1070       H  0.34817880  0.38979295  0.74200621     0.12600
H1071       H  0.35131251  0.36243528  0.74290358     0.13200
H1072       H  0.30626529  0.35654645  0.72651204     0.15100
C1073       C  0.23106093  0.45973189  0.78104778    -0.04900
C1074       C  0.23862412  0.46133315  0.79472648    -0.04900
C1075       C  0.24526300  0.47491157  0.79859774    -0.23000
C1076       C  0.24398363  0.48723019  0.78901479     0.19200
C1077       C  0.23726692  0.48548494  0.77474202     0.16400
C1078       C  0.23102012  0.47156352  0.77071630    -0.18000
C1079       C  0.23568001  0.49804927  0.76542727    -0.19900
C1080       C  0.23918178  0.51238453  0.77086633    -0.12400
C1081       C  0.24461008  0.51423080  0.78553736     0.04200
C1082       C  0.24789857  0.50152655  0.79413981    -0.24600
H1083       H  0.23866773  0.45227208  0.80276676     0.09300
H1084       H  0.25043676  0.47607215  0.80953455     0.12900
H1085       H  0.22500797  0.47033368  0.76021713     0.12800
H1086       H  0.23066590  0.49694264  0.75441404     0.12600
H1087       H  0.23642508  0.52204416  0.76410020     0.13200
H1088       H  0.25211086  0.50293466  0.80546730     0.15100
C1089       C  0.23612161  0.43221815  0.76079843    -0.04900
C1090       C  0.23378684  0.42816938  0.74576109    -0.04900
C1091       C  0.24586425  0.42742348  0.73576787    -0.23000
C1092       C  0.26043151  0.43087958  0.74066197     0.19200
C1093       C  0.26287613  0.43463316  0.75588230     0.16400
C1094       C  0.25076197  0.43504579  0.76584829    -0.18000
C1095       C  0.27733891  0.43833477  0.76081547    -0.19900
C1096       C  0.28923451  0.43867788  0.75068623    -0.12400
C1097       C  0.28689717  0.43517444  0.73555827     0.04200
C1098       C  0.27253533  0.43106140  0.73058771    -0.24600
H1099       H  0.22255110  0.42597361  0.74170814     0.09300
H1100       H  0.24376620  0.42450965  0.72415812     0.12900
H1101       H  0.25265655  0.43784042  0.77751396     0.12800
H1102       H  0.27937832  0.44129364  0.77242645     0.12600
H1103       H  0.30027459  0.44195984  0.75453697     0.13200
H1104       H  0.27076840  0.42850412  0.71883839     0.15100
C1105       C  0.19002606  0.35628898  0.76347430    -0.04900
C1106       C  0.17750617  0.36575262  0.76418206    -0.04900
C1107       C  0.17940645  0.38125807  0.76526826    -0.23000
C1108       C  0.19387257  0.38744494  0.76563032     0.19200
C1109       C  0.20654221  0.37794521  0.76478524     0.16400
C1110       C  0.20452478  0.36238720  0.76367654    -0.18000
C1111       C  0.22097344  0.38416130  0.76538386    -0.19900
C1112       C  0.22284659  0.39959266  0.76747180    -0.12400
C1113       C  0.21031861  0.40912849  0.76859268     0.04200
C1114       C  0.19586066  0.40293221  0.76726055    -0.24600
H1115       H  0.16628825  0.36112850  0.76390664     0.09300
H1116       H  0.16958060  0.38839808  0.76594343     0.12900
H1117       H  0.21418471  0.35500145  0.76299390     0.12800
H1118       H  0.23080875  0.37702533  0.76480069     0.12600
H1119       H  0.23408726  0.40386174  0.76895555     0.13200
H1120       H  0.18608077  0.41013122  0.76805045     0.15100
C1121       C  0.87847599  0.26434757  0.81137994    -0.04900
C1122       C  0.88625406  0.27680917  0.81701380    -0.04900
C1123       C  0.90154773  0.27865173  0.81404268    -0.23000
C1124       C  0.90928093  0.26824947  0.80506279     0.19200
C1125       C  0.90150914  0.25590054  0.79892573     0.16400
C1126       C  0.88619569  0.25391614  0.80228879    -0.18000
C1127       C  0.90925202  0.24572241  0.78964936    -0.19900
C1128       C  0.92467965  0.24740396  0.78702141    -0.12400
C1129       C  0.93262746  0.25926927  0.79364524     0.04200
C1130       C  0.92472740  0.26982563  0.80239812    -0.24600
H1131       H  0.88051050  0.28506361  0.82385467     0.09300
H1132       H  0.90733097  0.28823419  0.81876393     0.12900
H1133       H  0.88020217  0.24444916  0.79757923     0.12800
H1134       H  0.90346162  0.23623427  0.78475244     0.12600
H1135       H  0.93052170  0.23897956  0.78049055     0.13200
H1136       H  0.93074662  0.27904884  0.80754713     0.15100
C1137       C  0.64513137  0.25460851  0.67174962    -0.04900
C1138       C  0.63694818  0.26500425  0.66327307    -0.04900
C1139       C  0.62156286  0.26687993  0.66553542    -0.23000
C1140       C  0.61411355  0.25861518  0.67657427     0.19200
C1141       C  0.62220435  0.24824017  0.68536426     0.16400
C1142       C  0.63769071  0.24614941  0.68277061    -0.18000
C1143       C  0.61461903  0.24022719  0.69656626    -0.19900
C1144       C  0.59910162  0.24209635  0.69865537    -0.12400
C1145       C  0.59090196  0.25208126  0.68964293     0.04200
C1146       C  0.59865591  0.26049795  0.67882452    -0.24600
H1147       H  0.64251738  0.27173118  0.65488872     0.09300
H1148       H  0.61550850  0.27490743  0.65872925     0.12900
H1149       H  0.64403013  0.23835498  0.68960057     0.12800
H1150       H  0.62062407  0.23227367  0.70349606     0.12600
H1151       H  0.59351916  0.23522801  0.70685012     0.13200
H1152       H  0.59256780  0.26841304  0.67190747     0.15100
C1153       C  0.64551616  0.22308650  0.81085931    -0.04900
C1154       C  0.63850702  0.21086280  0.81774904    -0.04900
C1155       C  0.62320565  0.20818907  0.81558628    -0.23000
C1156       C  0.61468743  0.21751220  0.80621360     0.19200
C1157       C  0.62167140  0.22963742  0.79891422     0.16400
C1158       C  0.63702506  0.23246550  0.80141925    -0.18000
C1159       C  0.61309735  0.23881873  0.78942917    -0.19900
C1160       C  0.59764057  0.23643775  0.78773554    -0.12400
C1161       C  0.59047762  0.22470158  0.79531754     0.04200
C1162       C  0.59922941  0.21511089  0.80431740    -0.24600
H1163       H  0.64487338  0.20345088  0.82495290     0.09300
H1164       H  0.61803143  0.19882403  0.82125496     0.12900
H1165       H  0.64243114  0.24175785  0.79583279     0.12800
H1166       H  0.61824574  0.24816974  0.78371576     0.12600
H1167       H  0.59127704  0.24437030  0.78123582     0.13200
H1168       H  0.59386244  0.20604186  0.81029865     0.15100
C1169       C  0.78859255  0.25502750  0.81451338    -0.04900
C1170       C  0.77905473  0.26761121  0.81439829    -0.04900
C1171       C  0.76345714  0.26589284  0.81460256    -0.23000
C1172       C  0.75707493  0.25155169  0.81488329     0.19200
C1173       C  0.76654582  0.23883264  0.81501592     0.16400
C1174       C  0.78218743  0.24064135  0.81486956    -0.18000
C1175       C  0.76022119  0.22448680  0.81523151    -0.19900
C1176       C  0.74466151  0.22272253  0.81520912    -0.12400
C1177       C  0.73507004  0.23526090  0.81503772     0.04200
C1178       C  0.74140753  0.24969895  0.81495111    -0.24600
H1179       H  0.78364692  0.27882382  0.81418239     0.09300
H1180       H  0.75638886  0.27578665  0.81450441     0.12900
H1181       H  0.78935662  0.23081399  0.81497683     0.12800
H1182       H  0.76731238  0.21460843  0.81534939     0.12600
H1183       H  0.74013977  0.21147876  0.81531862     0.13200
H1184       H  0.73418301  0.25948405  0.81479599     0.15100
C1185       C  0.69065026  0.23323508  0.76912837    -0.04900
C1186       C  0.69337702  0.22050185  0.76018735    -0.04900
C1187       C  0.69365412  0.22154781  0.74458972    -0.23000
C1188       C  0.69121573  0.23535435  0.73758537     0.19200
C1189       C  0.68846097  0.24825475  0.74640496     0.16400
C1190       C  0.68817742  0.24712130  0.76210997    -0.18000
C1191       C  0.68608695  0.26206909  0.73934916    -0.19900
C1192       C  0.68652428  0.26310708  0.72372254    -0.12400
C1193       C  0.68925118  0.25033867  0.71484196     0.04200
C1194       C  0.69153568  0.23646034  0.72190658    -0.24600
H1195       H  0.69534221  0.20966740  0.76524832     0.09300
H1196       H  0.69580428  0.21154651  0.73800522     0.12900
H1197       H  0.68604984  0.25703878  0.76883325     0.12800
H1198       H  0.68393181  0.27208169  0.74591248     0.12600
H1199       H  0.68464870  0.27392020  0.71858374     0.13200
H1200       H  0.69368665  0.22651750  0.71522509     0.15100
C1201       C  0.88106509  0.23232691  0.67327659    -0.04900
C1202       C  0.88841623  0.21851161  0.67117357    -0.04900
C1203       C  0.90378875  0.21703892  0.67399931    -0.23000
C1204       C  0.91213506  0.22931735  0.67915790     0.19200
C1205       C  0.90489138  0.24324137  0.68147896     0.16400
C1206       C  0.88943304  0.24467915  0.67845925    -0.18000
C1207       C  0.91330905  0.25554367  0.68654323    -0.19900
C1208       C  0.92881766  0.25420820  0.68874898    -0.12400
C1209       C  0.93610509  0.24046841  0.68634566     0.04200
C1210       C  0.92766876  0.22801729  0.68165808    -0.24600
H1211       H  0.88225352  0.20879169  0.66731648     0.09300
H1212       H  0.90914961  0.20628281  0.67214335     0.12900
H1213       H  0.88388497  0.25533521  0.68036794     0.12800
H1214       H  0.90798619  0.26632989  0.68831115     0.12600
H1215       H  0.93521165  0.26408456  0.69168092     0.13200
H1216       H  0.93334361  0.21750095  0.67933664     0.15100
C1217       C  0.73550475  0.25254544  0.67025246    -0.04900
C1218       C  0.74373544  0.26590765  0.66896320    -0.04900
C1219       C  0.75943375  0.26564922  0.66879631    -0.23000
C1220       C  0.76721537  0.25202495  0.66999411     0.19200
C1221       C  0.75903634  0.23856118  0.67140262     0.16400
C1222       C  0.74329750  0.23889787  0.67148399    -0.18000
C1223       C  0.76672103  0.22493398  0.67268678    -0.19900
C1224       C  0.78236239  0.22458747  0.67251666    -0.12400
C1225       C  0.79070338  0.23785395  0.67104439     0.04200
C1226       C  0.78300302  0.25160052  0.66980233    -0.24600
H1227       H  0.73803581  0.27658546  0.66795913     0.09300
H1228       H  0.76547854  0.27610041  0.66771324     0.12900
H1229       H  0.73713040  0.22850887  0.67254662     0.12800
H1230       H  0.76063061  0.21451196  0.67380799     0.12600
H1231       H  0.78793126  0.21384301  0.67352345     0.13200
H1232       H  0.78925062  0.26193253  0.66868193     0.15100
C1233       C  0.83698616  0.23954990  0.71546662    -0.04900
C1234       C  0.83836959  0.22668251  0.72441011    -0.04900
C1235       C  0.83846474  0.22781064  0.74000481    -0.23000
C1236       C  0.83707866  0.24182349  0.74697808     0.19200
C1237       C  0.83585930  0.25487509  0.73814181     0.16400
C1238       C  0.83590244  0.25367217  0.72244585    -0.18000
C1239       C  0.83443180  0.26887854  0.74516970    -0.19900
C1240       C  0.83400729  0.26991647  0.76079477    -0.12400
C1241       C  0.83504938  0.25697613  0.76968203     0.04200
C1242       C  0.83671921  0.24295605  0.76264374    -0.24600
H1243       H  0.83934239  0.21567733  0.71935100     0.09300
H1244       H  0.83947218  0.21769783  0.74661046     0.12900
H1245       H  0.83485371  0.26369220  0.71570029     0.12800
H1246       H  0.83351774  0.27901370  0.73858752     0.12600
H1247       H  0.83278816  0.28086996  0.76591307     0.13200
H1248       H  0.83760708  0.23288099  0.76933088     0.15100
C1249       C  0.27445343  0.62604591  0.67577855    -0.04900
C1250       C  0.26688762  0.61734899  0.66508511    -0.04900
C1251       C  0.26567094  0.60184989  0.66692476    -0.23000
C1252       C  0.27166023  0.59490825  0.67970297     0.19200
C1253       C  0.27883099  0.60368117  0.69079811     0.16400
C1254       C  0.28036750  0.61918733  0.68865593    -0.18000
C1255       C  0.28448821  0.59674859  0.70373093    -0.19900
C1256       C  0.28369833  0.58117557  0.70532508    -0.12400
C1257       C  0.27723535  0.57230024  0.69402331     0.04200
C1258       C  0.27091937  0.57930963  0.68139663    -0.24600
H1259       H  0.26210237  0.62254376  0.65521903     0.09300
H1260       H  0.26006101  0.59529372  0.65835870     0.12900
H1261       H  0.28591513  0.62597757  0.69709709     0.12800
H1262       H  0.28991814  0.60331860  0.71240178     0.12600
H1263       H  0.28888853  0.57602697  0.71500130     0.13200
H1264       H  0.26587170  0.57254225  0.67263442     0.15100
C1265       C  0.28262561  0.85652451  0.81420426    -0.04900
C1266       C  0.29670685  0.86235344  0.81817982    -0.04900
C1267       C  0.30021793  0.87733865  0.81533346    -0.23000
C1268       C  0.28982890  0.88672842  0.80815429     0.19200
C1269       C  0.27564385  0.88102538  0.80401865     0.16400
C1270       C  0.27204565  0.86603309  0.80727542    -0.18000
C1271       C  0.26540249  0.89038224  0.79653236    -0.19900
C1272       C  0.26913059  0.90527224  0.79330799    -0.12400
C1273       C  0.28310372  0.91110024  0.79761445     0.04200
C1274       C  0.29339819  0.90172248  0.80504393    -0.24600
H1275       H  0.30507002  0.85526782  0.82341531     0.09300
H1276       H  0.31116098  0.88152444  0.81854670     0.12900
H1277       H  0.26123177  0.86162344  0.80390606     0.12800
H1278       H  0.25446557  0.88621938  0.79327233     0.12600
H1279       H  0.26087393  0.91237475  0.78794805     0.13200
H1280       H  0.30418793  0.90615562  0.80847056     0.15100
C1281       C  0.24669686  0.62348463  0.81536046    -0.04900
C1282       C  0.23212014  0.61799728  0.81753901    -0.04900
C1283       C  0.22859326  0.60320030  0.81392649    -0.23000
C1284       C  0.23954055  0.59363755  0.80790587     0.19200
C1285       C  0.25423595  0.59897676  0.80553509     0.16400
C1286       C  0.25776351  0.61386043  0.80938539    -0.18000
C1287       C  0.26510489  0.58928817  0.79942854    -0.19900
C1288       C  0.26156576  0.57430984  0.79624264    -0.12400
C1289       C  0.24707864  0.56885334  0.79900266     0.04200
C1290       C  0.23606503  0.57871974  0.80452532    -0.24600
H1291       H  0.22339109  0.62519519  0.82199880     0.09300
H1292       H  0.21727407  0.59924508  0.81580710     0.12900
H1293       H  0.26898809  0.61803736  0.80740330     0.12800
H1294       H  0.27643716  0.59317815  0.79750954     0.12600
H1295       H  0.27035002  0.56686646  0.79237031     0.13200
H1296       H  0.22483979  0.57461315  0.80667620     0.15100
C1297       C  0.25837072  0.66622401  0.77402436    -0.04900
C1298       C  0.24517145  0.66695791  0.76538938    -0.04900
C1299       C  0.24582832  0.66713961  0.74976898    -0.23000
C1300       C  0.25970723  0.66672489  0.74245710     0.19200
C1301       C  0.27304515  0.66560550  0.75097331     0.16400
C1302       C  0.27229489  0.66524426  0.76669176    -0.18000
C1303       C  0.28691919  0.66520831  0.74362231    -0.19900
C1304       C  0.28759586  0.66635134  0.72802395    -0.12400
C1305       C  0.27440806  0.66782629  0.71946188     0.04200
C1306       C  0.26046312  0.66773172  0.72679112    -0.24600
H1307       H  0.23427882  0.66753565  0.77071365     0.09300
H1308       H  0.23548428  0.66788274  0.74341854     0.12900
H1309       H  0.28255712  0.66458430  0.77318899     0.12800
H1310       H  0.29726114  0.66424963  0.74994579     0.12600
H1311       H  0.29848820  0.66618702  0.72267596     0.13200
H1312       H  0.25018947  0.66870451  0.72035051     0.15100
C1313       C  0.26503787  0.71154624  0.81849562    -0.04900
C1314       C  0.27950613  0.71648917  0.82235697    -0.04900
C1315       C  0.28314959  0.73166930  0.82177628    -0.23000
C1316       C  0.27240851  0.74221075  0.81727212     0.19200
C1317       C  0.25783535  0.73738931  0.81329170     0.16400
C1318       C  0.25423092  0.72210259  0.81395096    -0.18000
C1319       C  0.24709247  0.74796148  0.80882142    -0.19900
C1320       C  0.25064825  0.76318995  0.80862900    -0.12400
C1321       C  0.26505102  0.76811437  0.81275284     0.04200
C1322       C  0.27595432  0.75750633  0.81686929    -0.24600
H1323       H  0.28803929  0.70860531  0.82591173     0.09300
H1324       H  0.29436275  0.73516396  0.82489280     0.12900
H1325       H  0.24306503  0.71843553  0.81084394     0.12800
H1326       H  0.23589114  0.74447753  0.80565161     0.12600
H1327       H  0.24207799  0.77114016  0.80531366     0.13200
H1328       H  0.28707834  0.76117008  0.82013231     0.15100
C1329       C  0.26452891  0.86119819  0.67255836    -0.04900
C1330       C  0.27576088  0.87001428  0.66606039    -0.04900
C1331       C  0.27647105  0.88537303  0.66901852    -0.23000
C1332       C  0.26617383  0.89211095  0.67882774     0.19200
C1333       C  0.25510711  0.88327956  0.68584044     0.16400
C1334       C  0.25421440  0.86789247  0.68248396    -0.18000
C1335       C  0.24509652  0.89004868  0.69598029    -0.19900
C1336       C  0.24561175  0.90553233  0.69859158    -0.12400
C1337       C  0.25607623  0.91444960  0.69103878     0.04200
C1338       C  0.26655055  0.90759799  0.68144955    -0.24600
H1339       H  0.28393451  0.86501211  0.65858092     0.09300
H1340       H  0.28508850  0.89198002  0.66364658     0.12900
H1341       H  0.24576169  0.86106052  0.68785222     0.12800
H1342       H  0.23662244  0.88344195  0.70157037     0.12600
H1343       H  0.23731363  0.91064174  0.70585496     0.13200
H1344       H  0.27468420  0.91444247  0.67562218     0.15100
C1345       C  0.26350984  0.81675810  0.71414711    -0.04900
C1346       C  0.24997779  0.81985571  0.72165308    -0.04900
C1347       C  0.24939474  0.82012316  0.73729771    -0.23000
C1348       C  0.26231574  0.81720024  0.74576484     0.19200
C1349       C  0.27597988  0.81407469  0.73833708     0.16400
C1350       C  0.27651154  0.81393453  0.72261102    -0.18000
C1351       C  0.28888589  0.81106526  0.74676381    -0.19900
C1352       C  0.28827815  0.81109340  0.76238796    -0.12400
C1353       C  0.27475524  0.81414061  0.76995587     0.04200
C1354       C  0.26178582  0.81724968  0.76151420    -0.24600
H1355       H  0.23980357  0.82215605  0.71541947     0.09300
H1356       H  0.23882028  0.82256200  0.74276820     0.12900
H1357       H  0.28700831  0.81148217  0.71698476     0.12800
H1358       H  0.29945150  0.80862145  0.74127504     0.12600
H1359       H  0.29845460  0.80862326  0.76855041     0.13200
H1360       H  0.25128068  0.81960059  0.76716209     0.15100
C1361       C  0.26474985  0.77120254  0.66995841    -0.04900
C1362       C  0.25113493  0.76332145  0.67049186    -0.04900
C1363       C  0.25102686  0.74776157  0.67187271    -0.23000
C1364       C  0.26453343  0.73975556  0.67273416     0.19200
C1365       C  0.27831828  0.74748441  0.67210547     0.16400
C1366       C  0.27834932  0.76315704  0.67069976    -0.18000
C1367       C  0.29180890  0.73938711  0.67293115    -0.19900
C1368       C  0.29162690  0.72376955  0.67425205    -0.12400
C1369       C  0.27795216  0.71597888  0.67480033     0.04200
C1370       C  0.26443987  0.72412801  0.67412621    -0.24600
H1371       H  0.24050509  0.76919653  0.66997396     0.09300
H1372       H  0.24036035  0.74199143  0.67231569     0.12900
H1373       H  0.28894508  0.76906609  0.67031577     0.12800
H1374       H  0.30249475  0.74511688  0.67246507     0.12600
H1375       H  0.30219842  0.71778327  0.67467802     0.13200
H1376       H  0.25379076  0.71831116  0.67449035     0.15100
C1377       C  0.27704513  0.73388399  0.43699375    -0.04900
C1378       C  0.27884924  0.74882268  0.43246627    -0.04900
C1379       C  0.26653233  0.75852252  0.43170178    -0.23000
C1380       C  0.25219737  0.75348959  0.43565467     0.19200
C1381       C  0.25018207  0.73836600  0.43984044     0.16400
C1382       C  0.26257110  0.72862026  0.44019873    -0.18000
C1383       C  0.23587729  0.73336171  0.44400390    -0.19900
C1384       C  0.22377066  0.74334359  0.44437035    -0.12400
C1385       C  0.22574847  0.75837448  0.44042268     0.04200
C1386       C  0.23991418  0.76337625  0.43585622    -0.24600
H1387       H  0.28991546  0.75311501  0.43001141     0.09300
H1388       H  0.26828936  0.77006084  0.42843990     0.12900
H1389       H  0.26096055  0.71702413  0.44313162     0.12800
H1390       H  0.23412658  0.72182352  0.44727008     0.12600
H1391       H  0.21285010  0.73943711  0.44789423     0.13200
H1392       H  0.24138164  0.77504251  0.43289958     0.15100
C1393       C  0.27545870  0.70756621  0.52137895    -0.04900
C1394       C  0.28506098  0.71999176  0.52054037    -0.04900
C1395       C  0.28895648  0.72605982  0.50664069    -0.23000
C1396       C  0.28359753  0.71956434  0.49332817     0.19200
C1397       C  0.27331557  0.70756980  0.49410438     0.16400
C1398       C  0.26913270  0.70184372  0.50810904    -0.18000
C1399       C  0.26840910  0.70062290  0.48086660    -0.19900
C1400       C  0.27448687  0.70475366  0.46707759    -0.12400
C1401       C  0.28499812  0.71637123  0.46618584     0.04200
C1402       C  0.28924132  0.72401274  0.47932400    -0.24600
H1403       H  0.29045435  0.72435255  0.53048672     0.09300
H1404       H  0.29689416  0.73521837  0.50627908     0.12900
H1405       H  0.26179571  0.69219431  0.50864705     0.12800
H1406       H  0.26065866  0.69130720  0.48127383     0.12600
H1407       H  0.27168875  0.69821353  0.45722445     0.13200
H1408       H  0.29776091  0.73263329  0.47873415     0.15100
C1409       C  0.27436264  0.69221942  0.57555018    -0.04900
C1410       C  0.26330861  0.69998307  0.58367610    -0.04900
C1411       C  0.26177399  0.69772851  0.59915892    -0.23000
C1412       C  0.27125569  0.68765712  0.60673927     0.19200
C1413       C  0.28270908  0.68020829  0.59870229     0.16400
C1414       C  0.28418626  0.68256574  0.58325908    -0.18000
C1415       C  0.29238071  0.67031443  0.60617570    -0.19900
C1416       C  0.29077232  0.66781413  0.62152267    -0.12400
C1417       C  0.27928789  0.67491291  0.62963214     0.04200
C1418       C  0.26949487  0.68482185  0.62215696    -0.24600
H1419       H  0.25541233  0.70723259  0.57798988     0.09300
H1420       H  0.25295864  0.70359813  0.60513688     0.12900
H1421       H  0.29282289  0.67657300  0.57712110     0.12800
H1422       H  0.30122750  0.66453249  0.60015315     0.12600
H1423       H  0.29846135  0.66021784  0.62706520     0.13200
H1424       H  0.26075604  0.69054938  0.62839540     0.15100
C1425       C  0.24603166  0.78700772  0.51546437    -0.04900
C1426       C  0.25609825  0.78656170  0.50337635    -0.04900
C1427       C  0.25114721  0.78262995  0.48897880    -0.23000
C1428       C  0.23599635  0.77917823  0.48644712     0.19200
C1429       C  0.22598827  0.77895709  0.49872192     0.16400
C1430       C  0.23100266  0.78313872  0.51303155    -0.18000
C1431       C  0.21087314  0.77552429  0.49634854    -0.19900
C1432       C  0.20547863  0.77330415  0.48185533    -0.12400
C1433       C  0.21503379  0.77454043  0.46941438     0.04200
C1434       C  0.23044506  0.77698138  0.47181111    -0.24600
H1435       H  0.26764463  0.78996838  0.50496479     0.09300
H1436       H  0.25901687  0.78289094  0.47974599     0.12900
H1437       H  0.22293003  0.78455960  0.52197824     0.12800
H1438       H  0.20309489  0.77511297  0.50565421     0.12600
H1439       H  0.19361398  0.77121024  0.48031548     0.13200
H1440       H  0.23789435  0.77829088  0.46236142     0.15100
C1441       C  0.25148510  0.77289047  0.54696961    -0.04900
C1442       C  0.23937615  0.76356010  0.54332457    -0.04900
C1443       C  0.24075510  0.74800934  0.54425384    -0.23000
C1444       C  0.25416874  0.74153288  0.54927956     0.19200
C1445       C  0.26597699  0.75083137  0.55430699     0.16400
C1446       C  0.26457665  0.76648500  0.55305508    -0.18000
C1447       C  0.27920351  0.74425167  0.55982937    -0.19900
C1448       C  0.28104585  0.72865643  0.55947246    -0.12400
C1449       C  0.26980801  0.71951482  0.55337098     0.04200
C1450       C  0.25620882  0.72595563  0.54876215    -0.24600
H1451       H  0.22887625  0.76825526  0.53960592     0.09300
H1452       H  0.23143855  0.74104749  0.54075645     0.12900
H1453       H  0.27388353  0.77366050  0.55611664     0.12800
H1454       H  0.28832133  0.75117658  0.56387670     0.12600
H1455       H  0.29160784  0.72377647  0.56297575     0.13200
H1456       H  0.24755208  0.71882810  0.54407591     0.15100
C1457       C  0.25569024  0.79963127  0.56942713    -0.04900
C1458       C  0.24477637  0.79215504  0.57787473    -0.04900
C1459       C  0.24433152  0.79381065  0.59349328    -0.23000
C1460       C  0.25486402  0.80289715  0.60090875     0.19200
C1461       C  0.26623244  0.80997202  0.59252298     0.16400
C1462       C  0.26651629  0.80834917  0.57687878    -0.18000
C1463       C  0.27700323  0.81875565  0.59989574    -0.19900
C1464       C  0.27651787  0.82057056  0.61545443    -0.12400
C1465       C  0.26505975  0.81393788  0.62388726     0.04200
C1466       C  0.25421776  0.80510746  0.61652350    -0.24600
H1467       H  0.23617145  0.78560726  0.57234815     0.09300
H1468       H  0.23557859  0.78822808  0.59973658     0.12900
H1469       H  0.27499577  0.81413666  0.57043116     0.12800
H1470       H  0.28582909  0.82420112  0.59362960     0.12600
H1471       H  0.28501651  0.82732347  0.62090508     0.13200
H1472       H  0.24548892  0.79971859  0.62298404     0.15100
C1473       C  0.32523480  0.74085370  0.36359135    -0.04900
C1474       C  0.33373638  0.74860885  0.37433068    -0.04900
C1475       C  0.33046188  0.74727083  0.38958934    -0.23000
C1476       C  0.31832215  0.73851989  0.39432798     0.19200
C1477       C  0.30923902  0.73121970  0.38356493     0.16400
C1478       C  0.31291867  0.73222064  0.36826737    -0.18000
C1479       C  0.29674275  0.72295249  0.38833853    -0.19900
C1480       C  0.29370172  0.72136448  0.40365429    -0.12400
C1481       C  0.30320625  0.72785278  0.41438781     0.04200
C1482       C  0.31533497  0.73665008  0.40965280    -0.24600
H1483       H  0.34305686  0.75554889  0.37090253     0.09300
H1484       H  0.33742007  0.75308762  0.39768576     0.12900
H1485       H  0.30602941  0.72658180  0.35997277     0.12800
H1486       H  0.28955664  0.71740754  0.38025143     0.12600
H1487       H  0.28443919  0.71437525  0.40713951     0.13200
H1488       H  0.32272244  0.74162321  0.41794462     0.15100
C1489       C  0.18566050  0.74869789  0.36379860    -0.04900
C1490       C  0.17380401  0.74550330  0.37353556    -0.04900
C1491       C  0.17511112  0.74872370  0.38882565    -0.23000
C1492       C  0.18840839  0.75492445  0.39454934     0.19200
C1493       C  0.20061191  0.75761640  0.38484251     0.16400
C1494       C  0.19909179  0.75461143  0.36947815    -0.18000
C1495       C  0.21397468  0.76360046  0.39062485    -0.19900
C1496       C  0.21504879  0.76742201  0.40580111    -0.12400
C1497       C  0.20280266  0.76528773  0.41538595     0.04200
C1498       C  0.18958061  0.75883490  0.40972915    -0.24600
H1499       H  0.16342270  0.74088660  0.36923512     0.09300
H1500       H  0.16568551  0.74653092  0.39613569     0.12900
H1501       H  0.20829568  0.75691791  0.36190384     0.12800
H1502       H  0.22343909  0.76570082  0.38333685     0.12600
H1503       H  0.22517095  0.77272528  0.40985188     0.13200
H1504       H  0.18008031  0.75719427  0.41710917     0.15100
C1505       C  0.22888715  0.73970212  0.31945746    -0.04900
C1506       C  0.23612666  0.72592109  0.31691897    -0.04900
C1507       C  0.25175311  0.72510549  0.31613830    -0.23000
C1508       C  0.26044807  0.73803742  0.31802932     0.19200
C1509       C  0.25332892  0.75194407  0.32072350     0.16400
C1510       C  0.23759887  0.75270508  0.32134729    -0.18000
C1511       C  0.26207773  0.76483639  0.32275190    -0.19900
C1512       C  0.27773805  0.76395691  0.32213176    -0.12400
C1513       C  0.28493789  0.75017711  0.31942968     0.04200
C1514       C  0.27614644  0.73725651  0.31734212    -0.24600
H1515       H  0.22968760  0.71576949  0.31532043     0.09300
H1516       H  0.25703706  0.71435133  0.31405705     0.12900
H1517       H  0.23215702  0.76339611  0.32337483     0.12800
H1518       H  0.25681389  0.77559203  0.32486940     0.12600
H1519       H  0.28421118  0.77406784  0.32383518     0.13200
H1520       H  0.28149970  0.72652775  0.31528286     0.15100
C1521       C  0.33175251  0.74723018  0.21796284    -0.04900
C1522       C  0.33241695  0.73274544  0.22409174    -0.04900
C1523       C  0.33241393  0.73064906  0.23955916    -0.23000
C1524       C  0.33175965  0.74299173  0.24925048     0.19200
C1525       C  0.33119875  0.75763341  0.24329806     0.16400
C1526       C  0.33119101  0.75967428  0.22768421    -0.18000
C1527       C  0.33060956  0.76995058  0.25308552    -0.19900
C1528       C  0.33051356  0.76776580  0.26859777    -0.12400
C1529       C  0.33095259  0.75322495  0.27460528     0.04200
C1530       C  0.33161274  0.74088686  0.26480120    -0.24600
H1531       H  0.33288013  0.72294534  0.21691650     0.09300
H1532       H  0.33287885  0.71935190  0.24393827     0.12900
H1533       H  0.33069872  0.77090551  0.22313694     0.12800
H1534       H  0.33018840  0.78126451  0.24875178     0.12600
H1535       H  0.32999433  0.77747671  0.27589021     0.13200
H1536       H  0.33202147  0.72960961  0.26924862     0.15100
C1537       C  0.18374250  0.73527033  0.27494889    -0.04900
C1538       C  0.18199270  0.72084049  0.26883702    -0.04900
C1539       C  0.18184083  0.71868950  0.25332570    -0.23000
C1540       C  0.18346047  0.73093183  0.24368164     0.19200
C1541       C  0.18517602  0.74547759  0.24974045     0.16400
C1542       C  0.18529767  0.74754791  0.26528542    -0.18000
C1543       C  0.18676763  0.75774262  0.24015933    -0.19900
C1544       C  0.18670295  0.75563543  0.22467791    -0.12400
C1545       C  0.18507597  0.74122136  0.21848934     0.04200
C1546       C  0.18343036  0.72888838  0.22809523    -0.24600
H1547       H  0.18071217  0.71119940  0.27604159     0.09300
H1548       H  0.18047976  0.70746133  0.24887984     0.12900
H1549       H  0.18664212  0.75874527  0.26983264     0.12800
H1550       H  0.18808927  0.76896605  0.24463447     0.12600
H1551       H  0.18800817  0.76532724  0.21754619     0.13200
H1552       H  0.18211729  0.71771907  0.22347395     0.15100
C1553       C  0.23060259  0.73506302  0.17471657    -0.04900
C1554       C  0.23871699  0.72156227  0.17579969    -0.04900
C1555       C  0.25443870  0.72160831  0.17590189    -0.23000
C1556       C  0.26232470  0.73515745  0.17493212     0.19200
C1557       C  0.25421713  0.74876249  0.17410043     0.16400
C1558       C  0.23850972  0.74862774  0.17400875    -0.18000
C1559       C  0.26192027  0.76234941  0.17325226    -0.19900
C1560       C  0.27753192  0.76251707  0.17308324    -0.12400
C1561       C  0.28583705  0.74910335  0.17372278     0.04200
C1562       C  0.27812681  0.73539183  0.17469772    -0.24600
H1563       H  0.23291905  0.71094464  0.17645538     0.09300
H1564       H  0.26041684  0.71105227  0.17663823     0.12900
H1565       H  0.23245291  0.75914914  0.17328658     0.12800
H1566       H  0.25586623  0.77287555  0.17264542     0.12600
H1567       H  0.28310815  0.77324764  0.17232898     0.13200
H1568       H  0.28437139  0.72497653  0.17530550     0.15100
C1569       C  0.18853609  0.73097729  0.12909922    -0.04900
C1570       C  0.17662708  0.73350941  0.11915888    -0.04900
C1571       C  0.17884064  0.73227256  0.10367114    -0.23000
C1572       C  0.19307169  0.72868797  0.09790674     0.19200
C1573       C  0.20522063  0.72650301  0.10785885     0.16400
C1574       C  0.20284791  0.72757836  0.12341583    -0.18000
C1575       C  0.21946783  0.72309677  0.10206811    -0.19900
C1576       C  0.22156114  0.72132713  0.08660644    -0.12400
C1577       C  0.20947868  0.72302007  0.07661812     0.04200
C1578       C  0.19528904  0.72695457  0.08239500    -0.24600
H1579       H  0.16560054  0.73635431  0.12340353     0.09300
H1580       H  0.16941797  0.73407133  0.09620486     0.12900
H1581       H  0.21211727  0.72587947  0.13111450     0.12800
H1582       H  0.22891960  0.72142015  0.10952726     0.12600
H1583       H  0.23250169  0.71796542  0.08255133     0.13200
H1584       H  0.18587301  0.72832823  0.07482095     0.15100
C1585       C  0.28637211  0.75618015  0.05099663    -0.04900
C1586       C  0.28887144  0.74115389  0.04714504    -0.04900
C1587       C  0.27722160  0.73076916  0.04786937    -0.23000
C1588       C  0.26280177  0.73538022  0.05215211     0.19200
C1589       C  0.26024857  0.75047063  0.05634054     0.16400
C1590       C  0.27217260  0.76072463  0.05606106    -0.18000
C1591       C  0.24570634  0.75512129  0.06017161    -0.19900
C1592       C  0.23371742  0.74508950  0.05916476    -0.12400
C1593       C  0.23610812  0.73018374  0.05463037     0.04200
C1594       C  0.25079261  0.72528503  0.05173122    -0.24600
H1595       H  0.29983572  0.73758006  0.04331813     0.09300
H1596       H  0.27936638  0.71925683  0.04460616     0.12900
H1597       H  0.27029192  0.77236780  0.05900219     0.12800
H1598       H  0.24351965  0.76663339  0.06340121     0.12600
H1599       H  0.22246621  0.74907831  0.06143107     0.13200
H1600       H  0.25283404  0.71371178  0.04880371     0.15100
C1601       C  0.30981378  0.76521087  0.07506272    -0.04900
C1602       C  0.29814326  0.76968734  0.08463132    -0.04900
C1603       C  0.29965364  0.76833560  0.10019810    -0.23000
C1604       C  0.31285692  0.76241456  0.10645180     0.19200
C1605       C  0.32439083  0.75724687  0.09686773     0.16400
C1606       C  0.32283483  0.75878676  0.08126945    -0.18000
C1607       C  0.33742520  0.75092843  0.10307043    -0.19900
C1608       C  0.33910286  0.74989144  0.11862704    -0.12400
C1609       C  0.32798419  0.75552306  0.12822784     0.04200
C1610       C  0.31483458  0.76173825  0.12209320    -0.24600
H1611       H  0.28820431  0.77501441  0.08013989     0.09300
H1612       H  0.29065755  0.77228099  0.10735693     0.12900
H1613       H  0.33192086  0.75536575  0.07394316     0.12800
H1614       H  0.34632823  0.74680873  0.09589181     0.12600
H1615       H  0.34921180  0.74492014  0.12319627     0.13200
H1616       H  0.30609047  0.76582268  0.12950102     0.15100
C1617       C  0.23089894  0.71092254  0.02595544    -0.04900
C1618       C  0.24062816  0.69855261  0.02631988    -0.04900
C1619       C  0.24860569  0.69420755  0.01355034    -0.23000
C1620       C  0.24648719  0.70177924  0.99996546     0.19200
C1621       C  0.23694249  0.71442549  0.99949121     0.16400
C1622       C  0.22930653  0.71903741  0.01256465    -0.18000
C1623       C  0.23440665  0.72154639  0.98572074    -0.19900
C1624       C  0.24023184  0.71547959  0.97241405    -0.12400
C1625       C  0.24913785  0.70243842  0.97262751     0.04200
C1626       C  0.25281750  0.69617240  0.98665482    -0.24600
H1627       H  0.24161507  0.69189401  0.03639678     0.09300
H1628       H  0.25577762  0.68440500  0.01409641     0.12900
H1629       H  0.22146276  0.72832641  0.01212136     0.12800
H1630       H  0.22711328  0.73125383  0.98510326     0.12600
H1631       H  0.23675440  0.72045638  0.96200215     0.13200
H1632       H  0.25975896  0.68619584  0.98712070     0.15100
C1633       C  0.25590990  0.68590250  0.91886052    -0.04900
C1634       C  0.26853904  0.69185430  0.91168617    -0.04900
C1635       C  0.27092574  0.68924014  0.89634780    -0.23000
C1636       C  0.26061320  0.68077595  0.88791823     0.19200
C1637       C  0.24766276  0.67512416  0.89502621     0.16400
C1638       C  0.24549892  0.67759062  0.91042105    -0.18000
C1639       C  0.23709364  0.66703925  0.88664113    -0.19900
C1640       C  0.23918699  0.66474493  0.87129099    -0.12400
C1641       C  0.25208281  0.67009438  0.86408901     0.04200
C1642       C  0.26289203  0.67797376  0.87251476    -0.24600
H1643       H  0.27685978  0.69798332  0.91806746     0.09300
H1644       H  0.28090517  0.69370556  0.89111539     0.12900
H1645       H  0.23578041  0.67286627  0.91593849     0.12800
H1646       H  0.22708695  0.66267279  0.89191371     0.12600
H1647       H  0.23069500  0.65875061  0.86499617     0.13200
H1648       H  0.27274160  0.68238107  0.86697797     0.15100
C1649       C  0.27992265  0.78398012  0.96717874    -0.04900
C1650       C  0.29553783  0.78203608  0.96756015    -0.04900
C1651       C  0.30278220  0.77770146  0.98075275    -0.23000
C1652       C  0.29462587  0.77604348  0.99406252     0.19200
C1653       C  0.27892880  0.77823886  0.99392194     0.16400
C1654       C  0.27163909  0.78202685  0.98042808    -0.18000
C1655       C  0.27095801  0.77742929  0.00743471    -0.19900
C1656       C  0.27853530  0.77513357  0.02100786    -0.12400
C1657       C  0.29417656  0.77306038  0.02134038     0.04200
C1658       C  0.30205303  0.77315512  0.00765661    -0.24600
H1659       H  0.30224789  0.78452097  0.95778914     0.09300
H1660       H  0.31486859  0.77639737  0.98071533     0.12900
H1661       H  0.25965813  0.78413919  0.98034748     0.12800
H1662       H  0.25894564  0.77929471  0.00760555     0.12600
H1663       H  0.27217138  0.77587314  0.03123296     0.13200
H1664       H  0.31411635  0.77163257  0.00763901     0.15100
C1665       C  0.27153618  0.76837996  0.93712168    -0.04900
C1666       C  0.28455438  0.76010835  0.94032093    -0.04900
C1667       C  0.28402886  0.74452640  0.94163873    -0.23000
C1668       C  0.27053808  0.73687286  0.93923745     0.19200
C1669       C  0.25776036  0.74489636  0.93429460     0.16400
C1670       C  0.25831418  0.76063627  0.93335869    -0.18000
C1671       C  0.24448629  0.73706980  0.93108849    -0.19900
C1672       C  0.24366845  0.72160761  0.93355281    -0.12400
C1673       C  0.25589078  0.71389537  0.93978035     0.04200
C1674       C  0.26945238  0.72145292  0.94216921    -0.24600
H1675       H  0.29505322  0.76573258  0.94232004     0.09300
H1676       H  0.29407190  0.73851670  0.94493935     0.12900
H1677       H  0.24824801  0.76692061  0.93068764     0.12800
H1678       H  0.23464128  0.74295682  0.92706244     0.12600
H1679       H  0.23322848  0.71578336  0.93148308     0.13200
H1680       H  0.27897193  0.71536593  0.94666569     0.15100
C1681       C  0.26271348  0.79460487  0.91475814    -0.04900
C1682       C  0.24944641  0.80027803  0.90837452    -0.04900
C1683       C  0.24869786  0.80372115  0.89309409    -0.23000
C1684       C  0.26137223  0.80197247  0.88395219     0.19200
C1685       C  0.27466554  0.79592289  0.89020569     0.16400
C1686       C  0.27516276  0.79199830  0.90548583    -0.18000
C1687       C  0.28746110  0.79453978  0.88123816    -0.19900
C1688       C  0.28719491  0.79923349  0.86632132    -0.12400
C1689       C  0.27408814  0.80531555  0.85987448     0.04200
C1690       C  0.26111489  0.80651633  0.86880690    -0.24600
H1691       H  0.23982639  0.80265322  0.91540054     0.09300
H1692       H  0.23840181  0.80835130  0.88857875     0.12900
H1693       H  0.28556764  0.78804444  0.91040537     0.12800
H1694       H  0.29776302  0.78996931  0.88580659     0.12600
H1695       H  0.29732403  0.79792135  0.85976366     0.13200
H1696       H  0.25088810  0.81105529  0.86403958     0.15100
C1697       C  0.08545737  0.75384194  0.29784647    -0.04900
C1698       C  0.09448793  0.76499189  0.29152020    -0.04900
C1699       C  0.10998314  0.76517214  0.29421748    -0.23000
C1700       C  0.11666689  0.75420266  0.30331766     0.19200
C1701       C  0.10770373  0.74263545  0.30926158     0.16400
C1702       C  0.09219674  0.74255492  0.30650521    -0.18000
C1703       C  0.11432536  0.73154592  0.31819273    -0.19900
C1704       C  0.12969507  0.73189596  0.32125882    -0.12400
C1705       C  0.13872310  0.74346094  0.31565672     0.04200
C1706       C  0.13209466  0.75464208  0.30669256    -0.24600
H1707       H  0.08946259  0.77405373  0.28523955     0.09300
H1708       H  0.11666251  0.77412836  0.28954729     0.12900
H1709       H  0.08523236  0.73402538  0.31157137     0.12800
H1710       H  0.10761555  0.72257642  0.32279712     0.12600
H1711       H  0.13453662  0.72309647  0.32806109     0.13200
H1712       H  0.13898432  0.76347466  0.30207426     0.15100
C1713       C  0.06274921  0.73024180  0.21883761    -0.04900
C1714       C  0.05863275  0.71876377  0.22869449    -0.04900
C1715       C  0.05833350  0.72133011  0.24414229    -0.23000
C1716       C  0.06208230  0.73546421  0.24992810     0.19200
C1717       C  0.06709085  0.74682102  0.24013453     0.16400
C1718       C  0.06758955  0.74404347  0.22463866    -0.18000
C1719       C  0.07065077  0.76101855  0.24593448    -0.19900
C1720       C  0.06866326  0.76411551  0.26118584    -0.12400
C1721       C  0.06321753  0.75304785  0.27082085     0.04200
C1722       C  0.06023821  0.73866025  0.26522051    -0.24600
H1723       H  0.05485469  0.70809069  0.22431374     0.09300
H1724       H  0.05453693  0.71248918  0.25148868     0.12900
H1725       H  0.07062314  0.75292804  0.21698912     0.12800
H1726       H  0.07446853  0.76985923  0.23860001     0.12600
H1727       H  0.07080603  0.77529544  0.26538625     0.13200
H1728       H  0.05596072  0.73017952  0.27273405     0.15100
C1729       C  0.14028186  0.73749827  0.17627078    -0.04900
C1730       C  0.13196936  0.74819578  0.16827968    -0.04900
C1731       C  0.11648965  0.74951434  0.17032204    -0.23000
C1732       C  0.10906210  0.74036918  0.18064776     0.19200
C1733       C  0.11733788  0.72989313  0.18916634     0.16400
C1734       C  0.13289864  0.72838493  0.18678865    -0.18000
C1735       C  0.10983241  0.72102447  0.19974368    -0.19900
C1736       C  0.09420662  0.72203193  0.20132677    -0.12400
C1737       C  0.08585189  0.73190699  0.19235399     0.04200
C1738       C  0.09343499  0.74127983  0.18228841    -0.24600
H1739       H  0.13745481  0.75544549  0.16029008     0.09300
H1740       H  0.11031421  0.75767197  0.16378308     0.12900
H1741       H  0.13929584  0.72034811  0.19327808     0.12800
H1742       H  0.11598272  0.71300546  0.20647126     0.12600
H1743       H  0.08859487  0.71450744  0.20895649     0.13200
H1744       H  0.08706531  0.74894798  0.17533783     0.15100
C1745       C  0.98667176  0.78378456  0.25749351    -0.04900
C1746       C  0.99963604  0.78985733  0.25094797    -0.04900
C1747       C  0.01391951  0.78465128  0.25491604    -0.23000
C1748       C  0.01554467  0.77340626  0.26572408     0.19200
C1749       C  0.00255704  0.76663227  0.27174077     0.16400
C1750       C  0.98821862  0.77173683  0.26746774    -0.18000
C1751       C  0.00411732  0.75561422  0.28276120    -0.19900
C1752       C  0.01827538  0.75205935  0.28848015    -0.12400
C1753       C  0.03121911  0.75927679  0.28320252     0.04200
C1754       C  0.02983013  0.76957444  0.27138378    -0.24600
H1755       H  0.99872452  0.79920228  0.24329339     0.09300
H1756       H  0.02369719  0.78996429  0.25011100     0.12900
H1757       H  0.97839183  0.76723322  0.27293778     0.12800
H1758       H  0.99432550  0.75024024  0.28747005     0.12600
H1759       H  0.01906220  0.74403686  0.29752052     0.13200
H1760       H  0.03964737  0.77546938  0.26743454     0.15100
C1761       C  0.98353789  0.69932375  0.22310270    -0.04900
C1762       C  0.98803214  0.69149980  0.21019058    -0.04900
C1763       C  0.00088631  0.69562658  0.20243545    -0.23000
C1764       C  0.00957096  0.70765048  0.20749520     0.19200
C1765       C  0.00512172  0.71581026  0.22037871     0.16400
C1766       C  0.99207058  0.71157221  0.22816890    -0.18000
C1767       C  0.01395000  0.72788902  0.22527393    -0.19900
C1768       C  0.02713857  0.73163221  0.21762531    -0.12400
C1769       C  0.03178032  0.72326408  0.20506974     0.04200
C1770       C  0.02276865  0.71145583  0.19995326    -0.24600
H1771       H  0.98158630  0.68203142  0.20615367     0.09300
H1772       H  0.00413239  0.68928817  0.19257375     0.12900
H1773       H  0.98873114  0.71753352  0.23823506     0.12800
H1774       H  0.01069400  0.73439327  0.23502235     0.12600
H1775       H  0.03368119  0.74107943  0.22150852     0.13200
H1776       H  0.02622304  0.70499861  0.19022775     0.15100
C1777       C  0.95504955  0.71699765  0.23397465    -0.04900
C1778       C  0.96006590  0.72590036  0.22206379    -0.04900
C1779       C  0.96094188  0.74148034  0.22362270    -0.23000
C1780       C  0.95658811  0.74844295  0.23706169     0.19200
C1781       C  0.95041199  0.73970094  0.24868405     0.16400
C1782       C  0.94963696  0.72404366  0.24703272    -0.18000
C1783       C  0.94575101  0.74671591  0.26201113    -0.19900
C1784       C  0.94770563  0.76215258  0.26401566    -0.12400
C1785       C  0.95456001  0.77073854  0.25285378     0.04200
C1786       C  0.95875233  0.76389151  0.23928855    -0.24600
H1787       H  0.96394113  0.72071429  0.21178892     0.09300
H1788       H  0.96546297  0.74802746  0.21449746     0.12900
H1789       H  0.94570564  0.71724338  0.25624988     0.12800
H1790       H  0.94092423  0.74021294  0.27100995     0.12600
H1791       H  0.94445381  0.76733707  0.27451018     0.13200
H1792       H  0.96396904  0.77058843  0.23065129     0.15100
C1793       C  0.56385766  0.71601007  0.25087307    -0.04900
C1794       C  0.55935252  0.71479114  0.23586682    -0.04900
C1795       C  0.56028761  0.72708006  0.22629003    -0.23000
C1796       C  0.56556516  0.74087053  0.23166735     0.19200
C1797       C  0.57043823  0.74212647  0.24671676     0.16400
C1798       C  0.56968612  0.72960635  0.25621610    -0.18000
C1799       C  0.57545711  0.75602048  0.25209965    -0.19900
C1800       C  0.57482536  0.76869241  0.24293748    -0.12400
C1801       C  0.56936683  0.76767404  0.22818766     0.04200
C1802       C  0.56539391  0.75356791  0.22244007    -0.24600
H1803       H  0.55487778  0.70431283  0.23168096     0.09300
H1804       H  0.55648589  0.72591513  0.21480713     0.12900
H1805       H  0.57305248  0.73054261  0.26784948     0.12800
H1806       H  0.57927918  0.75721637  0.26357074     0.12600
H1807       H  0.57787067  0.77947654  0.24760712     0.13200
H1808       H  0.56163275  0.75256606  0.21096955     0.15100
C1809       C  0.47971545  0.71819289  0.27977608    -0.04900
C1810       C  0.48011566  0.70366294  0.27374182    -0.04900
C1811       C  0.49340631  0.69771148  0.26794368    -0.23000
C1812       C  0.50675998  0.70593302  0.26871794     0.19200
C1813       C  0.50655276  0.72063774  0.27464443     0.16400
C1814       C  0.49297249  0.72672893  0.28006092    -0.18000
C1815       C  0.52009454  0.72858020  0.27586640    -0.19900
C1816       C  0.53375679  0.72171754  0.27204990    -0.12400
C1817       C  0.53410065  0.70687663  0.26674787     0.04200
C1818       C  0.52045337  0.69927016  0.26463730    -0.24600
H1819       H  0.47022057  0.69665827  0.27409263     0.09300
H1820       H  0.49340191  0.68636149  0.26359418     0.12900
H1821       H  0.49286210  0.73772402  0.28526138     0.12800
H1822       H  0.52020147  0.73983843  0.28044345     0.12600
H1823       H  0.54407798  0.72770951  0.27414116     0.13200
H1824       H  0.52057353  0.68780569  0.26057977     0.15100
C1825       C  0.42772029  0.73242366  0.29652744    -0.04900
C1826       C  0.41776740  0.72489601  0.28691531    -0.04900
C1827       C  0.40223624  0.72558904  0.28937975    -0.23000
C1828       C  0.39638023  0.73393538  0.30143317     0.19200
C1829       C  0.40626789  0.74209472  0.31074850     0.16400
C1830       C  0.42182500  0.74121716  0.30828347    -0.18000
C1831       C  0.40044382  0.75079932  0.32253618    -0.19900
C1832       C  0.38496041  0.75143459  0.32508902    -0.12400
C1833       C  0.37504529  0.74304734  0.31619472     0.04200
C1834       C  0.38084914  0.73425657  0.30437871    -0.24600
H1835       H  0.42203479  0.71785360  0.27797226     0.09300
H1836       H  0.39482580  0.71933855  0.28204794     0.12900
H1837       H  0.42941562  0.74707042  0.31577332     0.12800
H1838       H  0.40786483  0.75718506  0.32974085     0.12600
H1839       H  0.38071712  0.75837340  0.33412797     0.13200
H1840       H  0.37323507  0.72799379  0.29725360     0.15100
C1841       C  0.48572372  0.75852849  0.20307014    -0.04900
C1842       C  0.48595119  0.76486530  0.21751180    -0.04900
C1843       C  0.49947962  0.76971953  0.22390984    -0.23000
C1844       C  0.51294714  0.76859801  0.21582917     0.19200
C1845       C  0.51291510  0.76138273  0.20169629     0.16400
C1846       C  0.49938894  0.75618810  0.19557003    -0.18000
C1847       C  0.52618741  0.76055258  0.19334355    -0.19900
C1848       C  0.53914085  0.76766350  0.19846303    -0.12400
C1849       C  0.53921673  0.77530097  0.21221558     0.04200
C1850       C  0.52618075  0.77547843  0.22106360    -0.24600
H1851       H  0.47561125  0.76714743  0.22340780     0.09300
H1852       H  0.49925718  0.77518693  0.23476724     0.12900
H1853       H  0.49933084  0.75133154  0.18441226     0.12800
H1854       H  0.52633176  0.75513052  0.18246048     0.12600
H1855       H  0.54897617  0.76779585  0.19135031     0.13200
H1856       H  0.52611663  0.78170665  0.23151572     0.15100
C1857       C  0.45530864  0.74509192  0.21347220    -0.04900
C1858       C  0.46086914  0.73052995  0.21541107    -0.04900
C1859       C  0.45989196  0.72348304  0.22931244    -0.23000
C1860       C  0.45380319  0.73113656  0.24164520     0.19200
C1861       C  0.44801724  0.74577718  0.23976744     0.16400
C1862       C  0.44846475  0.75254424  0.22555077    -0.18000
C1863       C  0.44252938  0.75359271  0.25228790    -0.19900
C1864       C  0.44353943  0.74729063  0.26660480    -0.12400
C1865       C  0.44967820  0.73290941  0.26864337     0.04200
C1866       C  0.45409914  0.72465752  0.25594853    -0.24600
H1867       H  0.46621013  0.72475471  0.20614797     0.09300
H1868       H  0.46445664  0.71229423  0.23056519     0.12900
H1869       H  0.44435562  0.76387438  0.22403740     0.12800
H1870       H  0.43807594  0.76483125  0.25110650     0.12600
H1871       H  0.44010259  0.75391383  0.27619249     0.13200
H1872       H  0.45818020  0.71335630  0.25719747     0.15100
C1873       C  0.37597451  0.75600933  0.17491165    -0.04900
C1874       C  0.38260781  0.76948992  0.17034459    -0.04900
C1875       C  0.39786093  0.77205046  0.17259487    -0.23000
C1876       C  0.40680711  0.76125331  0.17964694     0.19200
C1877       C  0.40038569  0.74763450  0.18440218     0.16400
C1878       C  0.38497328  0.74501395  0.18187460    -0.18000
C1879       C  0.40954042  0.73697584  0.19158877    -0.19900
C1880       C  0.42494414  0.73964529  0.19363279    -0.12400
C1881       C  0.43140131  0.75304316  0.18858360     0.04200
C1882       C  0.42213637  0.76385599  0.18182495    -0.24600
H1883       H  0.37593945  0.77813591  0.16503177     0.09300
H1884       H  0.40264877  0.78254298  0.16888448     0.12900
H1885       H  0.37992662  0.73467240  0.18566676     0.12800
H1886       H  0.40485329  0.72646426  0.19535585     0.12600
H1887       H  0.43185500  0.73098851  0.19857170     0.13200
H1888       H  0.42696560  0.77428189  0.17795823     0.15100
C1889       C  0.87749074  0.81401946  0.26445230    -0.04900
C1890       C  0.88548809  0.81994188  0.27665070    -0.04900
C1891       C  0.90088681  0.81726281  0.27814283    -0.23000
C1892       C  0.90850394  0.80830861  0.26764072     0.19200
C1893       C  0.90050893  0.80185810  0.25557587     0.16400
C1894       C  0.88507929  0.80492363  0.25394151    -0.18000
C1895       C  0.90815433  0.79261113  0.24530160    -0.19900
C1896       C  0.92369265  0.79035399  0.24657674    -0.12400
C1897       C  0.93182654  0.79733033  0.25812018     0.04200
C1898       C  0.92405119  0.80601140  0.26880910    -0.24600
H1899       H  0.87984064  0.82682168  0.28493563     0.09300
H1900       H  0.90685019  0.82222167  0.28750717     0.12900
H1901       H  0.87891501  0.80002759  0.24466471     0.12800
H1902       H  0.90219106  0.78746799  0.23603935     0.12600
H1903       H  0.92944242  0.78384042  0.23808063     0.13200
H1904       H  0.93023476  0.81140986  0.27779241     0.15100
C1905       C  0.64165238  0.67362578  0.25330524    -0.04900
C1906       C  0.63263981  0.66431155  0.24437775    -0.04900
C1907       C  0.61711548  0.66659895  0.24364644    -0.23000
C1908       C  0.61041903  0.67852751  0.25148777     0.19200
C1909       C  0.61950512  0.68840335  0.25993378     0.16400
C1910       C  0.63503244  0.68573840  0.26098950    -0.18000
C1911       C  0.61284730  0.70061350  0.26737085    -0.19900
C1912       C  0.59725589  0.70255742  0.26711180    -0.12400
C1913       C  0.58808443  0.69230557  0.25948370     0.04200
C1914       C  0.59476516  0.68048272  0.25141784    -0.24600
H1915       H  0.63760205  0.65510920  0.23816236     0.09300
H1916       H  0.61034342  0.65901728  0.23698602     0.12900
H1917       H  0.64201949  0.69322334  0.26755695     0.12800
H1918       H  0.61964582  0.70836573  0.27380285     0.12600
H1919       H  0.59230628  0.71148606  0.27370434     0.13200
H1920       H  0.58770262  0.67245657  0.24562259     0.15100
C1921       C  0.87679874  0.67435447  0.24301292    -0.04900
C1922       C  0.88439733  0.66867214  0.25557657    -0.04900
C1923       C  0.89960005  0.67166027  0.25779939    -0.23000
C1924       C  0.90745721  0.68057982  0.24760877     0.19200
C1925       C  0.89993203  0.68656210  0.23502415     0.16400
C1926       C  0.88467268  0.68327430  0.23271044    -0.18000
C1927       C  0.90785961  0.69562700  0.22495353    -0.19900
C1928       C  0.92325163  0.69810173  0.22693749    -0.12400
C1929       C  0.93092694  0.69157460  0.23902749     0.04200
C1930       C  0.92283408  0.68320427  0.24956172    -0.24600
H1931       H  0.87853628  0.66193923  0.26375065     0.09300
H1932       H  0.90520636  0.66701697  0.26751764     0.12900
H1933       H  0.87884002  0.68798886  0.22315328     0.12800
H1934       H  0.90227685  0.70037038  0.21527279     0.12600
H1935       H  0.92932263  0.70428546  0.21849030     0.13200
H1936       H  0.92871548  0.67805603  0.25886709     0.15100
C1937       C  0.83426326  0.71758286  0.24334680    -0.04900
C1938       C  0.83806679  0.72591869  0.23056247    -0.04900
C1939       C  0.83878956  0.74152422  0.23116157    -0.23000
C1940       C  0.83563010  0.74913364  0.24453920     0.19200
C1941       C  0.83197089  0.74088624  0.25752271     0.16400
C1942       C  0.83139129  0.72516857  0.25687531    -0.18000
C1943       C  0.82880265  0.74851768  0.27089367    -0.19900
C1944       C  0.82914394  0.76415373  0.27137707    -0.12400
C1945       C  0.83264226  0.77248742  0.25849832     0.04200
C1946       C  0.83594490  0.76485071  0.24510158    -0.24600
H1947       H  0.84048910  0.72036560  0.22002738     0.09300
H1948       H  0.84169407  0.74764327  0.22111979     0.12900
H1949       H  0.82846163  0.71888685  0.26681404     0.12800
H1950       H  0.82597172  0.74240396  0.28095956     0.12600
H1951       H  0.82653116  0.76972787  0.28185439     0.13200
H1952       H  0.83872304  0.77111170  0.23510600     0.15100
C1953       C  0.78678246  0.67452620  0.23897634    -0.04900
C1954       C  0.77871409  0.67180380  0.22571936    -0.04900
C1955       C  0.76304245  0.67119321  0.22593724    -0.23000
C1956       C  0.75520978  0.67330883  0.23941444     0.19200
C1957       C  0.76320968  0.67650453  0.25270577     0.16400
C1958       C  0.77889725  0.67715813  0.25238457    -0.18000
C1959       C  0.75541224  0.67866876  0.26617727    -0.19900
C1960       C  0.73981389  0.67731373  0.26656888    -0.12400
C1961       C  0.73173726  0.67386530  0.25347826     0.04200
C1962       C  0.73954227  0.67206048  0.23987522    -0.24600
H1963       H  0.78452482  0.66976830  0.21525919     0.09300
H1964       H  0.75706645  0.66880279  0.21562384     0.12900
H1965       H  0.78497238  0.67944285  0.26267242     0.12800
H1966       H  0.76139179  0.68123446  0.27644812     0.12600
H1967       H  0.73407579  0.67896884  0.27713304     0.13200
H1968       H  0.73346534  0.66950472  0.22965483     0.15100
C1969       C  0.64453372  0.81353514  0.22617194    -0.04900
C1970       C  0.63525189  0.82381757  0.23366650    -0.04900
C1971       C  0.61971098  0.82185431  0.23390139    -0.23000
C1972       C  0.61319991  0.80929222  0.22703926     0.19200
C1973       C  0.62243273  0.79869774  0.21964805     0.16400
C1974       C  0.63805214  0.80104572  0.21899823    -0.18000
C1975       C  0.61585996  0.78588969  0.21323065    -0.19900
C1976       C  0.60029042  0.78376835  0.21388678    -0.12400
C1977       C  0.59102322  0.79450579  0.22077839     0.04200
C1978       C  0.59759837  0.80719741  0.22741939    -0.24600
H1979       H  0.64007136  0.83339175  0.23938671     0.09300
H1980       H  0.61280194  0.83004076  0.23967022     0.12900
H1981       H  0.64521003  0.79288835  0.21347936     0.12800
H1982       H  0.62273530  0.77760011  0.20757259     0.12600
H1983       H  0.59542172  0.77406918  0.20843395     0.13200
H1984       H  0.59050534  0.81555591  0.23271864     0.15100
C1985       C  0.68924055  0.77060717  0.23453335    -0.04900
C1986       C  0.69265309  0.76166181  0.22196007    -0.04900
C1987       C  0.69265403  0.74607610  0.22291843    -0.23000
C1988       C  0.68921698  0.73906410  0.23646783     0.19200
C1989       C  0.68589301  0.74787273  0.24925316     0.16400
C1990       C  0.68593315  0.76359493  0.24822048    -0.18000
C1991       C  0.68257205  0.74077782  0.26282688    -0.19900
C1992       C  0.68255686  0.72513956  0.26370993    -0.12400
C1993       C  0.68575265  0.71629245  0.25101428     0.04200
C1994       C  0.68906363  0.72338047  0.23740763    -0.24600
H1995       H  0.69534471  0.76671102  0.21129021     0.09300
H1996       H  0.69530592  0.73950585  0.21303043     0.12900
H1997       H  0.68331424  0.77032637  0.25801196     0.12800
H1998       H  0.68000406  0.74731176  0.27275898     0.12600
H1999       H  0.67995743  0.71996315  0.27434273     0.13200
H2000       H  0.69167704  0.71670609  0.22757256     0.15100
C2001       C  0.73437668  0.81503412  0.23539889    -0.04900
C2002       C  0.74399872  0.81380756  0.22299785    -0.04900
C2003       C  0.75955372  0.81389397  0.22494539    -0.23000
C2004       C  0.76577457  0.81521886  0.23933112     0.19200
C2005       C  0.75623688  0.81626046  0.25190729     0.16400
C2006       C  0.74062842  0.81614374  0.24987013    -0.18000
C2007       C  0.76247795  0.81750237  0.26629981    -0.19900
C2008       C  0.77804544  0.81783777  0.26820832    -0.12400
C2009       C  0.78764514  0.81697744  0.25575794     0.04200
C2010       C  0.78137362  0.81559984  0.24132889    -0.24600
H2011       H  0.73950865  0.81286413  0.21175449     0.09300
H2012       H  0.76671940  0.81301739  0.21518486     0.12900
H2013       H  0.73337307  0.81702674  0.25956904     0.12800
H2014       H  0.75532201  0.81827576  0.27607538     0.12600
H2015       H  0.78256353  0.81886598  0.27943381     0.13200
H2016       H  0.78861638  0.81481452  0.23161228     0.15100
C2017       C  0.70579699  0.57131793  0.25426905    -0.04900
C2018       C  0.71273437  0.57869606  0.24227985    -0.04900
C2019       C  0.71063969  0.59413844  0.24015563    -0.23000
C2020       C  0.70154655  0.60249370  0.24998919     0.19200
C2021       C  0.69484666  0.59522239  0.26230567     0.16400
C2022       C  0.69694198  0.57973286  0.26429612    -0.18000
C2023       C  0.68596984  0.60351775  0.27232188    -0.19900
C2024       C  0.68377239  0.61888679  0.27022113    -0.12400
C2025       C  0.69011155  0.62625702  0.25788757     0.04200
C2026       C  0.69896688  0.61793795  0.24772805    -0.24600
H2027       H  0.71914747  0.57243600  0.23410547     0.09300
H2028       H  0.71587653  0.59948305  0.23063458     0.12900
H2029       H  0.69139048  0.57410660  0.27348566     0.12800
H2030       H  0.68077625  0.59812949  0.28184474     0.12600
H2031       H  0.67699311  0.62503327  0.27822693     0.13200
H2032       H  0.70412395  0.62354377  0.23830641     0.15100
C2033       C  0.78737835  0.54998270  0.23860719    -0.04900
C2034       C  0.77894082  0.55277336  0.22565252    -0.04900
C2035       C  0.76327505  0.55311287  0.22631826    -0.23000
C2036       C  0.75595499  0.55159386  0.24012658     0.19200
C2037       C  0.76453429  0.55082496  0.25345391     0.16400
C2038       C  0.78021702  0.54961471  0.25257416    -0.18000
C2039       C  0.75721035  0.55071826  0.26734558    -0.19900
C2040       C  0.74154831  0.55033079  0.26795716    -0.12400
C2041       C  0.73310431  0.54904435  0.25476254     0.04200
C2042       C  0.74028175  0.55022827  0.24084801    -0.24600
H2043       H  0.78447046  0.55350080  0.21488834     0.09300
H2044       H  0.75690041  0.55416790  0.21603061     0.12900
H2045       H  0.78684017  0.54790770  0.26261953     0.12800
H2046       H  0.76357852  0.55059113  0.27769307     0.12600
H2047       H  0.73602011  0.54997040  0.27874199     0.13200
H2048       H  0.73370296  0.54952786  0.23065143     0.15100
C2049       C  0.82828139  0.62774682  0.23581947    -0.04900
C2050       C  0.83455604  0.62049984  0.22329936    -0.04900
C2051       C  0.83253828  0.60515524  0.22102345    -0.23000
C2052       C  0.82396607  0.59676231  0.23108554     0.19200
C2053       C  0.81725782  0.60390849  0.24355468     0.16400
C2054       C  0.81960375  0.61935640  0.24595252    -0.18000
C2055       C  0.80845749  0.59540735  0.25342402    -0.19900
C2056       C  0.80677596  0.57991953  0.25123075    -0.12400
C2057       C  0.81386909  0.57271195  0.23915233     0.04200
C2058       C  0.82227016  0.58127184  0.22902093    -0.24600
H2059       H  0.84117932  0.62671307  0.21529469     0.09300
H2060       H  0.83770058  0.59984621  0.21137759     0.12900
H2061       H  0.81448190  0.62488267  0.25550231     0.12800
H2062       H  0.80317677  0.60066677  0.26302823     0.12600
H2063       H  0.80056820  0.57349511  0.25937644     0.13200
H2064       H  0.82784919  0.57574479  0.21972042     0.15100
C2065       C  0.74239155  0.47098856  0.28426962    -0.04900
C2066       C  0.74935711  0.48373220  0.29045944    -0.04900
C2067       C  0.74614975  0.49808557  0.28511154    -0.23000
C2068       C  0.73596882  0.50007026  0.27331271     0.19200
C2069       C  0.72984268  0.48735641  0.26611788     0.16400
C2070       C  0.73299725  0.47289859  0.27169136    -0.18000
C2071       C  0.71977664  0.48941357  0.25420105    -0.19900
C2072       C  0.71499502  0.50384032  0.25025507    -0.12400
C2073       C  0.72012299  0.51655369  0.25810450     0.04200
C2074       C  0.73098038  0.51452426  0.26938300    -0.24600
H2075       H  0.75680104  0.48265832  0.29999759     0.09300
H2076       H  0.75115644  0.50767875  0.29064052     0.12900
H2077       H  0.72709169  0.46343894  0.26702744     0.12800
H2078       H  0.71505229  0.47984273  0.24839217     0.12600
H2079       H  0.70659146  0.50502275  0.24155755     0.13200
H2080       H  0.73451596  0.52387798  0.27614890     0.15100
C2081       C  0.80123786  0.51789603  0.23357224    -0.04900
C2082       C  0.80750314  0.50482556  0.23978935    -0.04900
C2083       C  0.80263264  0.49062429  0.23530588    -0.23000
C2084       C  0.79120064  0.48913262  0.22462163     0.19200
C2085       C  0.78405986  0.50210143  0.21904992     0.16400
C2086       C  0.78924309  0.51637295  0.22338906    -0.18000
C2087       C  0.77248707  0.50056224  0.20850315    -0.19900
C2088       C  0.76856261  0.48638739  0.20301892    -0.12400
C2089       C  0.77622830  0.47342674  0.20777345     0.04200
C2090       C  0.78745174  0.47496782  0.21875969    -0.24600
H2091       H  0.81672683  0.50559008  0.24766545     0.09300
H2092       H  0.80815473  0.48080614  0.23984464     0.12900
H2093       H  0.78470243  0.52605580  0.21783632     0.12800
H2094       H  0.76677049  0.51035505  0.20415025     0.12600
H2095       H  0.75989959  0.48561700  0.19453322     0.13200
H2096       H  0.79419250  0.46546323  0.22188803     0.15100
C2097       C  0.77143999  0.44094420  0.22032977    -0.04900
C2098       C  0.78330042  0.44015085  0.23061496    -0.04900
C2099       C  0.78039079  0.43928571  0.24597515    -0.23000
C2100       C  0.76556760  0.43844851  0.25114636     0.19200
C2101       C  0.75365869  0.43745490  0.24069812     0.16400
C2102       C  0.75667894  0.43885128  0.22533200    -0.18000
C2103       C  0.73889805  0.43581615  0.24586612    -0.19900
C2104       C  0.73587069  0.43627744  0.26122982    -0.12400
C2105       C  0.74748847  0.43872052  0.27153631     0.04200
C2106       C  0.76237528  0.43919189  0.26652541    -0.24600
H2107       H  0.79478395  0.44082500  0.22677684     0.09300
H2108       H  0.78968605  0.43961567  0.25380266     0.12900
H2109       H  0.74756068  0.43901246  0.21728620     0.12800
H2110       H  0.72966511  0.43474787  0.23803114     0.12600
H2111       H  0.72436962  0.43570458  0.26505666     0.13200
H2112       H  0.77132979  0.44086630  0.27458336     0.15100
C2113       C  0.76373455  0.17214975  0.21705665    -0.04900
C2114       C  0.77767420  0.16879065  0.22361348    -0.04900
C2115       C  0.77904233  0.16756958  0.23918164    -0.23000
C2116       C  0.76650385  0.16974583  0.24843620     0.19200
C2117       C  0.75244187  0.17307402  0.24193300     0.16400
C2118       C  0.75115633  0.17424568  0.22634894    -0.18000
C2119       C  0.73987607  0.17522197  0.25111600    -0.19900
C2120       C  0.74124110  0.17423103  0.26665761    -0.12400
C2121       C  0.75520379  0.17111943  0.27329828     0.04200
C2122       C  0.76779583  0.16877757  0.26407316    -0.24600
H2123       H  0.78749607  0.16699856  0.21670751     0.09300
H2124       H  0.78990455  0.16495299  0.24398138     0.12900
H2125       H  0.74031139  0.17682977  0.22147611     0.12800
H2126       H  0.72900833  0.17776627  0.24628494     0.12600
H2127       H  0.73138266  0.17611765  0.27348941     0.13200
H2128       H  0.77861976  0.16629573  0.26904075     0.15100
C2129       C  0.75367339  0.36195718  0.31425869    -0.04900
C2130       C  0.76453107  0.37041782  0.32189074    -0.04900
C2131       C  0.76531271  0.38595724  0.31997033    -0.23000
C2132       C  0.75552052  0.39326778  0.31003801     0.19200
C2133       C  0.74486837  0.38481317  0.30190538     0.16400
C2134       C  0.74385050  0.36924151  0.30424891    -0.18000
C2135       C  0.73537407  0.39212509  0.29166635    -0.19900
C2136       C  0.73607892  0.40771551  0.28987911    -0.12400
C2137       C  0.74621759  0.41628092  0.29834847     0.04200
C2138       C  0.75603764  0.40891232  0.30828954    -0.24600
H2139       H  0.77228134  0.36501036  0.32951972     0.09300
H2140       H  0.77360904  0.39225693  0.32622995     0.12900
H2141       H  0.73564331  0.36273438  0.29806849     0.12800
H2142       H  0.72717542  0.38582731  0.28527843     0.12600
H2143       H  0.72815942  0.41314058  0.28246229     0.13200
H2144       H  0.76386400  0.41543857  0.31492991     0.15100
C2145       C  0.74976008  0.27176000  0.31595605    -0.04900
C2146       C  0.73581084  0.26452415  0.31718546    -0.04900
C2147       C  0.73497042  0.24890538  0.31779307    -0.23000
C2148       C  0.74806374  0.24020429  0.31717491     0.19200
C2149       C  0.76212190  0.24735225  0.31577839     0.16400
C2150       C  0.76288295  0.26303646  0.31516353    -0.18000
C2151       C  0.77522322  0.23870181  0.31511503    -0.19900
C2152       C  0.77444542  0.22312069  0.31589538    -0.12400
C2153       C  0.76055016  0.21583704  0.31735308     0.04200
C2154       C  0.74735500  0.22449915  0.31796425    -0.24600
H2155       H  0.72550719  0.27094474  0.31782155     0.09300
H2156       H  0.72408577  0.24364351  0.31883234     0.12900
H2157       H  0.77371310  0.26843063  0.31417897     0.12800
H2158       H  0.78609204  0.24398533  0.31401765     0.12600
H2159       H  0.78479539  0.21676784  0.31533910     0.13200
H2160       H  0.73655771  0.21905623  0.31902488     0.15100
C2161       C  0.77237951  0.41892676  0.19312056    -0.04900
C2162       C  0.78395214  0.41106313  0.20035712    -0.04900
C2163       C  0.78593162  0.39565078  0.19781874    -0.23000
C2164       C  0.77630261  0.38783670  0.18805769     0.19200
C2165       C  0.76422809  0.39557723  0.18129423     0.16400
C2166       C  0.76238231  0.41101143  0.18383764    -0.18000
C2167       C  0.75437333  0.38784175  0.17179728    -0.19900
C2168       C  0.75645646  0.37258411  0.16892932    -0.12400
C2169       C  0.76857529  0.36474551  0.17527634     0.04200
C2170       C  0.77852472  0.37248567  0.18485856    -0.24600
H2171       H  0.79195901  0.41698293  0.20731125     0.09300
H2172       H  0.79521243  0.38992906  0.20319038     0.12900
H2173       H  0.75343341  0.41701018  0.17818763     0.12800
H2174       H  0.74501575  0.39359477  0.16658726     0.12600
H2175       H  0.74855812  0.36688484  0.16166312     0.13200
H2176       H  0.78773479  0.36650517  0.19008304     0.15100
C2177       C  0.77222923  0.27451392  0.17107682    -0.04900
C2178       C  0.78568981  0.26657101  0.17326731    -0.04900
C2179       C  0.78569483  0.25091319  0.17409900    -0.23000
C2180       C  0.77223363  0.24289692  0.17278137     0.19200
C2181       C  0.75864888  0.25075573  0.17053389     0.16400
C2182       C  0.75873973  0.26644876  0.16963727    -0.18000
C2183       C  0.74516352  0.24279766  0.16931084    -0.19900
C2184       C  0.74511294  0.22718159  0.17030057    -0.12400
C2185       C  0.75855442  0.21919144  0.17242223     0.04200
C2186       C  0.77211343  0.22717461  0.17366417    -0.24600
H2187       H  0.79622317  0.27246607  0.17447030     0.09300
H2188       H  0.79622294  0.24507957  0.17584947     0.12900
H2189       H  0.74824350  0.27237143  0.16795705     0.12800
H2190       H  0.73464238  0.24865130  0.16757533     0.12600
H2191       H  0.73453816  0.22133939  0.16919311     0.13200
H2192       H  0.78256866  0.22117581  0.17532721     0.15100
C2193       C  0.75143048  0.31779252  0.27111598    -0.04900
C2194       C  0.73807764  0.31862581  0.26272654    -0.04900
C2195       C  0.73850485  0.31899703  0.24701032    -0.23000
C2196       C  0.75229302  0.31855267  0.23941377     0.19200
C2197       C  0.76571789  0.31772419  0.24781217     0.16400
C2198       C  0.76519980  0.31734454  0.26348018    -0.18000
C2199       C  0.77953868  0.31729900  0.24045036    -0.19900
C2200       C  0.78014014  0.31771080  0.22488143    -0.12400
C2201       C  0.76693822  0.31854265  0.21625311     0.04200
C2202       C  0.75296617  0.31893924  0.22362935    -0.24600
H2203       H  0.72730669  0.31899746  0.26830357     0.09300
H2204       H  0.72806623  0.31964228  0.24081135     0.12900
H2205       H  0.77562066  0.31671161  0.26972623     0.12800
H2206       H  0.78992680  0.31665988  0.24674348     0.12600
H2207       H  0.79106243  0.31736337  0.21960040     0.13200
H2208       H  0.74269487  0.31958934  0.21715067     0.15100
C2209       C  0.75067611  0.07525454  0.19164595    -0.04900
C2210       C  0.74332680  0.08446980  0.20210393    -0.04900
C2211       C  0.74364958  0.10008309  0.20063411    -0.23000
C2212       C  0.75141800  0.10674473  0.18872546     0.19200
C2213       C  0.75969795  0.09761413  0.17873963     0.16400
C2214       C  0.75922644  0.08194179  0.18023488    -0.18000
C2215       C  0.76787837  0.10430475  0.16712537    -0.19900
C2216       C  0.76753616  0.11986449  0.16517705    -0.12400
C2217       C  0.75870731  0.12895170  0.17454933     0.04200
C2218       C  0.75080133  0.12232542  0.18643440    -0.24600
H2219       H  0.73651718  0.07959252  0.21084037     0.09300
H2220       H  0.73738567  0.10692104  0.20850516     0.12900
H2221       H  0.76499599  0.07490813  0.17214768     0.12800
H2222       H  0.77443203  0.09749382  0.15946877     0.12600
H2223       H  0.77391405  0.12478740  0.15613779     0.13200
H2224       H  0.74430239  0.12933018  0.19397821     0.15100
C2225       C  0.76394354  0.04908519  0.27281775    -0.04900
C2226       C  0.74836055  0.05087257  0.27159663    -0.04900
C2227       C  0.74158968  0.05252540  0.25755189    -0.23000
C2228       C  0.75033034  0.05221016  0.24449651     0.19200
C2229       C  0.76610616  0.05079908  0.24569318     0.16400
C2230       C  0.77282445  0.04954685  0.25988394    -0.18000
C2231       C  0.77483717  0.05024041  0.23265200    -0.19900
C2232       C  0.76796227  0.05041407  0.21857232    -0.12400
C2233       C  0.75231185  0.05140118  0.21728593     0.04200
C2234       C  0.74356546  0.05282392  0.23026967    -0.24600
H2235       H  0.74144451  0.05065669  0.28155393     0.09300
H2236       H  0.72950187  0.05362477  0.25687532     0.12900
H2237       H  0.78489812  0.04869517  0.26088835     0.12800
H2238       H  0.78692775  0.04917447  0.23334192     0.12600
H2239       H  0.77479679  0.04932621  0.20860755     0.13200
H2240       H  0.73153154  0.05407681  0.22928273     0.15100
C2241       C  0.76793687  0.07215186  0.29868326    -0.04900
C2242       C  0.77501736  0.08128770  0.28809585    -0.04900
C2243       C  0.77439833  0.09690907  0.28949255    -0.23000
C2244       C  0.76657393  0.10359769  0.30143516     0.19200
C2245       C  0.75876053  0.09447486  0.31168359     0.16400
C2246       C  0.75958838  0.07883247  0.31029192    -0.18000
C2247       C  0.75056051  0.10114889  0.32337017    -0.19900
C2248       C  0.75033701  0.11673502  0.32507589    -0.12400
C2249       C  0.75862670  0.12582103  0.31537661     0.04200
C2250       C  0.76663098  0.11921092  0.30348564    -0.24600
H2251       H  0.78167936  0.07634990  0.27921565     0.09300
H2252       H  0.78035127  0.10374305  0.28146474     0.12900
H2253       H  0.75406877  0.07181219  0.31848101     0.12800
H2254       H  0.74441561  0.09431056  0.33124883     0.12600
H2255       H  0.74401793  0.12168529  0.33420210     0.13200
H2256       H  0.77280847  0.12625081  0.29579478     0.15100
C2257       C  0.72417484  0.96837416  0.21706539    -0.04900
C2258       C  0.73547073  0.96811550  0.20611984    -0.04900
C2259       C  0.74211013  0.98138796  0.20119830    -0.23000
C2260       C  0.73719637  0.99527168  0.20673770     0.19200
C2261       C  0.72594149  0.99571894  0.21786173     0.16400
C2262       C  0.71961620  0.98227435  0.22304539    -0.18000
C2263       C  0.72056550  0.00963096  0.22292360    -0.19900
C2264       C  0.72584582  0.02292932  0.21659485    -0.12400
C2265       C  0.73691206  0.02261381  0.20542898     0.04200
C2266       C  0.74267736  0.00870674  0.20068441    -0.24600
H2267       H  0.73848593  0.95780974  0.20054566     0.09300
H2268       H  0.75053618  0.98083105  0.19247668     0.12900
H2269       H  0.71060488  0.98264005  0.23118385     0.12800
H2270       H  0.71176320  0.01020759  0.23126360     0.12600
H2271       H  0.72057693  0.03336627  0.21978874     0.13200
H2272       H  0.75095247  0.00835023  0.19179888     0.15100
C2273       C  0.70806153  0.91525377  0.22656516    -0.04900
C2274       C  0.71338981  0.90874755  0.23985182    -0.04900
C2275       C  0.71086626  0.89350709  0.24278881    -0.23000
C2276       C  0.70298267  0.88452539  0.23246754     0.19200
C2277       C  0.69791381  0.89096006  0.21893023     0.16400
C2278       C  0.70042559  0.90620976  0.21612911    -0.18000
C2279       C  0.69025951  0.88209077  0.20843995    -0.19900
C2280       C  0.68774074  0.86692353  0.21122462    -0.12400
C2281       C  0.69253858  0.86033423  0.22467943     0.04200
C2282       C  0.70008410  0.86926271  0.23536308    -0.24600
H2283       H  0.71889464  0.91554720  0.24825776     0.09300
H2284       H  0.71485360  0.88881102  0.25324082     0.12900
H2285       H  0.69616327  0.91117366  0.20589406     0.12800
H2286       H  0.68632089  0.88685959  0.19799873     0.12600
H2287       H  0.68199364  0.86029975  0.20280758     0.13200
H2288       H  0.70406266  0.86424778  0.24567610     0.15100
C2289       C  0.79827982  0.97171553  0.26156175    -0.04900
C2290       C  0.80421957  0.98407273  0.25389037    -0.04900
C2291       C  0.79918437  0.99862149  0.25696645    -0.23000
C2292       C  0.78816492  0.00110495  0.26789338     0.19200
C2293       C  0.78142440  0.98869142  0.27497237     0.16400
C2294       C  0.78657778  0.97411589  0.27182493    -0.18000
C2295       C  0.77052771  0.99112968  0.28601950    -0.19900
C2296       C  0.76720392  0.00567141  0.29082524    -0.12400
C2297       C  0.77460577  0.01805377  0.28462938     0.04200
C2298       C  0.78471100  0.01573012  0.27277266    -0.24600
H2299       H  0.81339913  0.98252001  0.24609492     0.09300
H2300       H  0.80446346  0.00796950  0.25136634     0.12900
H2301       H  0.78248189  0.96494966  0.27848608     0.12800
H2302       H  0.76516386  0.98176541  0.29151253     0.12600
H2303       H  0.75946223  0.00721955  0.30004972     0.13200
H2304       H  0.79097338  0.02506443  0.26835173     0.15100
C2305       C  0.78577951  0.93976087  0.25481360    -0.04900
C2306       C  0.77485054  0.93919270  0.26606607    -0.04900
C2307       C  0.75961670  0.93871988  0.26234824    -0.23000
C2308       C  0.75515486  0.93789105  0.24729472     0.19200
C2309       C  0.76618450  0.93678351  0.23596475     0.16400
C2310       C  0.78143530  0.93818267  0.23976741    -0.18000
C2311       C  0.76169982  0.93472320  0.22102262    -0.19900
C2312       C  0.74645092  0.93462806  0.21727445    -0.12400
C2313       C  0.73554928  0.93741426  0.22824305     0.04200
C2314       C  0.73991256  0.93859927  0.24331151    -0.24600
H2315       H  0.77812949  0.93980007  0.27773224     0.09300
H2316       H  0.75134174  0.93917431  0.27121568     0.12900
H2317       H  0.78988087  0.93852011  0.23106401     0.12800
H2318       H  0.76996879  0.93343085  0.21222744     0.12600
H2319       H  0.74315955  0.93315344  0.20568763     0.13200
H2320       H  0.73145708  0.94058558  0.25180597     0.15100
C2321       C  0.81266491  0.91712358  0.25883958    -0.04900
C2322       C  0.80898456  0.91010536  0.24522350    -0.04900
C2323       C  0.81202564  0.89481406  0.24299990    -0.23000
C2324       C  0.81890920  0.88630927  0.25433385     0.19200
C2325       C  0.82227006  0.89324777  0.26819607     0.16400
C2326       C  0.81912040  0.90852619  0.27033970    -0.18000
C2327       C  0.82904160  0.88488940  0.27961364    -0.19900
C2328       C  0.83238332  0.86975460  0.27740942    -0.12400
C2329       C  0.82921914  0.86263380  0.26368404     0.04200
C2330       C  0.82254735  0.87105148  0.25209177    -0.24600
H2331       H  0.80455218  0.91657295  0.23600599     0.09300
H2332       H  0.80937379  0.88974430  0.23227390     0.12900
H2333       H  0.82220798  0.91391828  0.28080774     0.12800
H2334       H  0.83168672  0.89004006  0.29030788     0.12600
H2335       H  0.83740025  0.86355060  0.28654895     0.13200
H2336       H  0.81980281  0.86565017  0.24154490     0.15100
C2337       C  0.77819401  0.30023653  0.07205036    -0.04900
C2338       C  0.76561824  0.29353510  0.07869349    -0.04900
C2339       C  0.76215578  0.29624640  0.09379389    -0.23000
C2340       C  0.77114675  0.30579517  0.10253601     0.19200
C2341       C  0.78392323  0.31242564  0.09601671     0.16400
C2342       C  0.78733953  0.30960656  0.08090158    -0.18000
C2343       C  0.79306421  0.32183011  0.10470280    -0.19900
C2344       C  0.78974355  0.32445684  0.11978934    -0.12400
C2345       C  0.77706522  0.31797733  0.12645653     0.04200
C2346       C  0.76767883  0.30876218  0.11767969    -0.24600
H2347       H  0.75806746  0.28670510  0.07212702     0.09300
H2348       H  0.75229557  0.29106196  0.09856786     0.12900
H2349       H  0.79708533  0.31486158  0.07595199     0.12800
H2350       H  0.80290524  0.32701107  0.09987863     0.12600
H2351       H  0.79718145  0.33150724  0.12631597     0.13200
H2352       H  0.75801909  0.30348559  0.12276636     0.15100
C2353       C  0.77493719  0.27206621  0.05111316    -0.04900
C2354       C  0.78524769  0.26196659  0.05734569    -0.04900
C2355       C  0.78136629  0.24690967  0.05921750    -0.23000
C2356       C  0.76692309  0.24194429  0.05539585     0.19200
C2357       C  0.75609551  0.25243228  0.05045289     0.16400
C2358       C  0.76026506  0.26737027  0.04804921    -0.18000
C2359       C  0.74144534  0.24766124  0.04746130    -0.19900
C2360       C  0.73785963  0.23247083  0.04821890    -0.12400
C2361       C  0.74894218  0.22173830  0.05141175     0.04200
C2362       C  0.76331641  0.22662523  0.05568004    -0.24600
H2363       H  0.79656727  0.26557604  0.05983423     0.09300
H2364       H  0.78975499  0.23909215  0.06324505     0.12900
H2365       H  0.75228329  0.27530493  0.04345348     0.12800
H2366       H  0.73286708  0.25561233  0.04414569     0.12600
H2367       H  0.72651782  0.22907326  0.04578836     0.13200
H2368       H  0.77194863  0.21847293  0.05819956     0.15100
C2369       C  0.75341756  0.19426420  0.07311471    -0.04900
C2370       C  0.76830668  0.19345463  0.07816834    -0.04900
C2371       C  0.77149929  0.19004893  0.09315661    -0.23000
C2372       C  0.75983914  0.18687695  0.10321177     0.19200
C2373       C  0.74481198  0.18775228  0.09818181     0.16400
C2374       C  0.74170794  0.19160708  0.08323969    -0.18000
C2375       C  0.73314209  0.18424159  0.10802598    -0.19900
C2376       C  0.73627323  0.17991113  0.12271944    -0.12400
C2377       C  0.75114983  0.17904354  0.12798331     0.04200
C2378       C  0.76292292  0.18257469  0.11809174    -0.24600
H2379       H  0.77748424  0.19482258  0.07036776     0.09300
H2380       H  0.78309609  0.18933223  0.09673352     0.12900
H2381       H  0.73021592  0.19169239  0.07923184     0.12800
H2382       H  0.72156407  0.18479682  0.10434960     0.12600
H2383       H  0.72694415  0.17742260  0.13004402     0.13200
H2384       H  0.77443841  0.18210065  0.12197354     0.15100
C2385       C  0.79539535  0.26681468  0.96482919    -0.04900
C2386       C  0.78805037  0.28074181  0.96449045    -0.04900
C2387       C  0.78218445  0.28710661  0.97756947    -0.23000
C2388       C  0.78445274  0.28013920  0.99144648     0.19200
C2389       C  0.79188465  0.26615556  0.99200017     0.16400
C2390       C  0.79709248  0.25946317  0.97865147    -0.18000
C2391       C  0.79496231  0.25968343  0.00597998    -0.19900
C2392       C  0.79147812  0.26736513  0.01925849    -0.12400
C2393       C  0.78439911  0.28145664  0.01886628     0.04200
C2394       C  0.78049572  0.28750630  0.00482868    -0.24600
H2395       H  0.78757898  0.28712802  0.95420789     0.09300
H2396       H  0.77677785  0.29797307  0.97695675     0.12900
H2397       H  0.80343289  0.24909215  0.97911743     0.12800
H2398       H  0.80083728  0.24906519  0.00665404     0.12600
H2399       H  0.79525280  0.26264245  0.02970648     0.13200
H2400       H  0.77516187  0.29842167  0.00431218     0.15100
C2401       C  0.82769988  0.26254432  0.85934943    -0.04900
C2402       C  0.82127618  0.27580027  0.86508236    -0.04900
C2403       C  0.81581544  0.27647183  0.87972510    -0.23000
C2404       C  0.81681535  0.26396214  0.88908406     0.19200
C2405       C  0.82346401  0.25061073  0.88363018     0.16400
C2406       C  0.82875326  0.24993687  0.86876047    -0.18000
C2407       C  0.82493109  0.23828587  0.89325919    -0.19900
C2408       C  0.82043498  0.23942447  0.90825960    -0.12400
C2409       C  0.81387640  0.25267225  0.91372023     0.04200
C2410       C  0.81180996  0.26479748  0.90398967    -0.24600
H2411       H  0.82009104  0.28562656  0.85810124     0.09300
H2412       H  0.81083393  0.28681812  0.88374142     0.12900
H2413       H  0.83360361  0.23961496  0.86452072     0.12800
H2414       H  0.83009655  0.22798807  0.88936011     0.12600
H2415       H  0.82259071  0.23016469  0.91577378     0.13200
H2416       H  0.80726788  0.27522554  0.90833471     0.15100
C2417       C  0.72177009  0.22225208  0.96846808    -0.04900
C2418       C  0.73717169  0.21876649  0.96843672    -0.04900
C2419       C  0.74474232  0.21552979  0.98181973    -0.23000
C2420       C  0.73695034  0.21519404  0.99546204     0.19200
C2421       C  0.72157410  0.21907618  0.99568910     0.16400
C2422       C  0.71422567  0.22289849  0.98230691    -0.18000
C2423       C  0.71350794  0.21804241  0.00911160    -0.19900
C2424       C  0.72040455  0.21248277  0.02200485    -0.12400
C2425       C  0.73565183  0.20858155  0.02195451     0.04200
C2426       C  0.74396255  0.21012610  0.00867703    -0.24600
H2427       H  0.74324476  0.21754811  0.95806978     0.09300
H2428       H  0.75650149  0.21246462  0.98137367     0.12900
H2429       H  0.70235158  0.22553320  0.98256275     0.12800
H2430       H  0.70166057  0.22076215  0.00944024     0.12600
H2431       H  0.71367093  0.21068573  0.03192378     0.13200
H2432       H  0.75560731  0.20660167  0.00845975     0.15100
C2433       C  0.78552600  0.25080038  0.93457084    -0.04900
C2434       C  0.78427367  0.23636389  0.92829379    -0.04900
C2435       C  0.77023243  0.22959094  0.92644832    -0.23000
C2436       C  0.75718249  0.23694015  0.93130780     0.19200
C2437       C  0.75827709  0.25160648  0.93724259     0.16400
C2438       C  0.77232698  0.25858935  0.93828656    -0.18000
C2439       C  0.74541798  0.25875844  0.94283511    -0.19900
C2440       C  0.73180706  0.25109760  0.94342180    -0.12400
C2441       C  0.73067611  0.23645269  0.93785312     0.04200
C2442       C  0.74321584  0.22961729  0.93117563    -0.24600
H2443       H  0.79422850  0.23004019  0.92540274     0.09300
H2444       H  0.76966478  0.21832721  0.92192074     0.12900
H2445       H  0.77292218  0.26992400  0.94235619     0.12800
H2446       H  0.74606517  0.26997046  0.94748232     0.12600
H2447       H  0.72218085  0.25640134  0.94861059     0.13200
H2448       H  0.74232147  0.21821438  0.92706612     0.15100
C2449       C  0.70572202  0.22759444  0.91446732    -0.04900
C2450       C  0.70967769  0.24148360  0.90828796    -0.04900
C2451       C  0.70727361  0.24433114  0.89298792    -0.23000
C2452       C  0.70084552  0.23334377  0.88364152     0.19200
C2453       C  0.69714109  0.21927534  0.88978450     0.16400
C2454       C  0.69962209  0.21652348  0.90503147    -0.18000
C2455       C  0.69087842  0.20815119  0.88063206    -0.19900
C2456       C  0.68845055  0.21081227  0.86544004    -0.12400
C2457       C  0.69203428  0.22471192  0.85906858     0.04200
C2458       C  0.69811329  0.23605590  0.86829462    -0.24600
H2459       H  0.71405735  0.25033243  0.91534637     0.09300
H2460       H  0.71021555  0.25519728  0.88852290     0.12900
H2461       H  0.69657152  0.20573869  0.90965305     0.12800
H2462       H  0.68797178  0.19731296  0.88519975     0.12600
H2463       H  0.68381245  0.20189999  0.85860266     0.13200
H2464       H  0.70113397  0.24674670  0.86346086     0.15100
C2465       C  0.81902780  0.23395307  0.57035622    -0.04900
C2466       C  0.81353019  0.24708946  0.57713430    -0.04900
C2467       C  0.81535503  0.24949594  0.59259184    -0.23000
C2468       C  0.82281609  0.23884977  0.60149895     0.19200
C2469       C  0.82789958  0.22539841  0.59481151     0.16400
C2470       C  0.82591321  0.22303982  0.57939472    -0.18000
C2471       C  0.83522244  0.21462350  0.60356448    -0.19900
C2472       C  0.83756317  0.21712392  0.61883136    -0.12400
C2473       C  0.83282600  0.23052542  0.62565660     0.04200
C2474       C  0.82543704  0.24141076  0.61689615    -0.24600
H2475       H  0.80855743  0.25585336  0.57043606     0.09300
H2476       H  0.81132382  0.25987060  0.59749367     0.12900
H2477       H  0.83018501  0.21284369  0.57429065     0.12800
H2478       H  0.83916369  0.20424227  0.59859510     0.12600
H2479       H  0.84317540  0.20855034  0.62533310     0.13200
H2480       H  0.82149301  0.25167978  0.62209978     0.15100
C2481       C  0.73748067  0.24625478  0.54740272    -0.04900
C2482       C  0.74038188  0.23083011  0.54803338    -0.04900
C2483       C  0.75509346  0.22548376  0.54914312    -0.23000
C2484       C  0.76717906  0.23549287  0.54876623     0.19200
C2485       C  0.76434412  0.25108160  0.54802171     0.16400
C2486       C  0.74948194  0.25636572  0.54800344    -0.18000
C2487       C  0.77639536  0.26102879  0.54648838    -0.19900
C2488       C  0.79104510  0.25553301  0.54522099    -0.12400
C2489       C  0.79393111  0.24012147  0.54618941     0.04200
C2490       C  0.78201411  0.23016237  0.54833720    -0.24600
H2491       H  0.73122521  0.22292859  0.54722701     0.09300
H2492       H  0.75704075  0.21350546  0.54951546     0.12900
H2493       H  0.74721727  0.26828405  0.54761820     0.12800
H2494       H  0.77443587  0.27298110  0.54565817     0.12600
H2495       H  0.80018399  0.26325952  0.54334014     0.13200
H2496       H  0.78429096  0.21824993  0.54892287     0.15100
C2497       C  0.69395689  0.25644791  0.62476034    -0.04900
C2498       C  0.68983907  0.26976298  0.61746686    -0.04900
C2499       C  0.69297019  0.27184059  0.60229085    -0.23000
C2500       C  0.70049265  0.26072514  0.59407398     0.19200
C2501       C  0.70481290  0.24727834  0.60118248     0.16400
C2502       C  0.70138643  0.24514231  0.61647991    -0.18000
C2503       C  0.71242026  0.23625305  0.59280090    -0.19900
C2504       C  0.71528755  0.23836501  0.57746909    -0.12400
C2505       C  0.71072556  0.25158783  0.57026911     0.04200
C2506       C  0.70350015  0.26277683  0.57877962    -0.24600
H2507       H  0.68419472  0.27865405  0.62355111     0.09300
H2508       H  0.68956798  0.28221096  0.59699172     0.12900
H2509       H  0.70483689  0.23490647  0.62200990     0.12800
H2510       H  0.71581045  0.22583517  0.59800743     0.12600
H2511       H  0.72034165  0.22933039  0.57116216     0.13200
H2512       H  0.69977694  0.27296616  0.57331998     0.15100
C2513       C  0.74865782  0.27889350  0.46966226    -0.04900
C2514       C  0.75652526  0.28449014  0.48216799    -0.04900
C2515       C  0.75343380  0.27936892  0.49662929    -0.23000
C2516       C  0.74239368  0.26847617  0.49892470     0.19200
C2517       C  0.73528658  0.26185986  0.48638203     0.16400
C2518       C  0.73839051  0.26715898  0.47185385    -0.18000
C2519       C  0.72425816  0.25094600  0.48867938    -0.19900
C2520       C  0.71945705  0.24755647  0.50319126    -0.12400
C2521       C  0.72560016  0.25491584  0.51572361     0.04200
C2522       C  0.73746209  0.26502853  0.51350602    -0.24600
H2523       H  0.76452361  0.29349489  0.48083050     0.09300
H2524       H  0.75914843  0.28447360  0.50607126     0.12900
H2525       H  0.73171903  0.26313530  0.46259641     0.12800
H2526       H  0.71875658  0.24562758  0.47923017     0.12600
H2527       H  0.71022021  0.23983247  0.50459372     0.13200
H2528       H  0.74184411  0.27135172  0.52286162     0.15100
C2529       C  0.75085053  0.29395367  0.41508567    -0.04900
C2530       C  0.74131620  0.28480101  0.40650951    -0.04900
C2531       C  0.73965631  0.28717962  0.39103386    -0.23000
C2532       C  0.74751866  0.29875415  0.38385466     0.19200
C2533       C  0.75763500  0.30756164  0.39229515     0.16400
C2534       C  0.75920566  0.30511530  0.40776737    -0.18000
C2535       C  0.76582570  0.31888723  0.38518871    -0.19900
C2536       C  0.76401923  0.32151377  0.36985681    -0.12400
C2537       C  0.75370401  0.31317251  0.36138299     0.04200
C2538       C  0.74544611  0.30175705  0.36845209    -0.24600
H2539       H  0.73451544  0.27636847  0.41187751     0.09300
H2540       H  0.73192022  0.28022242  0.38475766     0.12900
H2541       H  0.76661854  0.31225035  0.41425427     0.12800
H2542       H  0.77370130  0.32567740  0.39148049     0.12600
H2543       H  0.77066141  0.33015248  0.36458028     0.13200
H2544       H  0.73776496  0.29498729  0.36189155     0.15100
C2545       C  0.78513701  0.20318575  0.47004854    -0.04900
C2546       C  0.77753479  0.19763576  0.48265148    -0.04900
C2547       C  0.78028389  0.20346076  0.49695305    -0.23000
C2548       C  0.79078543  0.21493988  0.49897885     0.19200
C2549       C  0.79790611  0.22118869  0.48631952     0.16400
C2550       C  0.79507479  0.21524561  0.47195715    -0.18000
C2551       C  0.80859920  0.23250492  0.48836645    -0.19900
C2552       C  0.81304790  0.23671448  0.50281079    -0.12400
C2553       C  0.80672276  0.22990315  0.51546338     0.04200
C2554       C  0.79516250  0.21941614  0.51347700    -0.24600
H2555       H  0.76984934  0.18832466  0.48149723     0.09300
H2556       H  0.77467325  0.19854078  0.50649488     0.12900
H2557       H  0.80158979  0.21917631  0.46259775     0.12800
H2558       H  0.81413351  0.23749564  0.47881757     0.12600
H2559       H  0.82211279  0.24467067  0.50411996     0.13200
H2560       H  0.79061651  0.21367405  0.52309934     0.15100
C2561       C  0.77856147  0.21570755  0.43816454    -0.04900
C2562       C  0.79008627  0.22619871  0.43646861    -0.04900
C2563       C  0.78677187  0.24148553  0.43554408    -0.23000
C2564       C  0.77181617  0.24640995  0.43582304     0.19200
C2565       C  0.76010016  0.23574883  0.43610546     0.16400
C2566       C  0.76356625  0.22043748  0.43738037    -0.18000
C2567       C  0.74514304  0.24065918  0.43573584    -0.19900
C2568       C  0.74183118  0.25597834  0.43608831    -0.12400
C2569       C  0.75336990  0.26654581  0.43723224     0.04200
C2570       C  0.76835772  0.26176826  0.43648941    -0.24600
H2571       H  0.80167928  0.22255774  0.43651782     0.09300
H2572       H  0.79589066  0.24945944  0.43500954     0.12900
H2573       H  0.75468707  0.21223805  0.43838884     0.12800
H2574       H  0.73602152  0.23266751  0.43566886     0.12600
H2575       H  0.73023551  0.25960422  0.43632812     0.13200
H2576       H  0.77725125  0.26999266  0.43721368     0.15100
C2577       C  0.77780693  0.18875034  0.41602643    -0.04900
C2578       C  0.78675083  0.19730335  0.40640363    -0.04900
C2579       C  0.78552496  0.19557470  0.39083398    -0.23000
C2580       C  0.77522032  0.18536817  0.38467464     0.19200
C2581       C  0.76572035  0.17721117  0.39430434     0.16400
C2582       C  0.76716970  0.17886937  0.40988222    -0.18000
C2583       C  0.75508632  0.16735321  0.38819979    -0.19900
C2584       C  0.75391028  0.16551767  0.37267765    -0.12400
C2585       C  0.76361378  0.17317737  0.36302687     0.04200
C2586       C  0.77427605  0.18310339  0.36909117    -0.24600
H2587       H  0.79517917  0.20477353  0.41092800     0.09300
H2588       H  0.79282906  0.20200097  0.38362429     0.12900
H2589       H  0.76022842  0.17223762  0.41727971     0.12800
H2590       H  0.74765332  0.16109416  0.39542836     0.12600
H2591       H  0.74554375  0.15794380  0.36819248     0.13200
H2592       H  0.78158395  0.18928909  0.36166093     0.15100
loop_ 
_geom_bond_atom_site_label_1 
_geom_bond_atom_site_label_2 
_geom_bond_distance 
_geom_bond_site_symmetry_2 
_ccdc_geom_bond_type 
N1            C5   1.361       .  A
N1            C2   1.358       .  A
N1         C2561   1.437       .  S
C2            C3   1.382       .  A
C2         C2577   1.481       .  S
C3            C4   1.373       .  A
C3            H6   1.082       .  S
C4            C5   1.384       .  A
C4            H7   1.082       .  S
C5         C2545   1.490       .  S
N8           C12   1.364       .  A
N8            C9   1.363       .  A
N8         C2569   1.437       .  S
C9           C10   1.384       .  A
C9         C2529   1.491       .  S
C10          C11   1.372       .  A
C10          H13   1.082       .  S
C11          C12   1.383       .  A
C11          H14   1.082       .  S
C12        C2513   1.495       .  S
N15          C19   1.362       .  A
N15          C16   1.364       .  A
N15        C2481   1.437       .  S
C16          C17   1.384       .  A
C16        C2505   1.490       .  S
C17          C18   1.373       .  A
C17          H20   1.082       .  S
C18          C19   1.381       .  A
C18          H21   1.082       .  S
C19        C2521   1.490       .  S
N22          C26   1.359       .  A
N22          C23   1.360       .  A
N22        C2489   1.436       .  S
C23          C24   1.385       .  A
C23        C2465   1.487       .  S
C24          C25   1.373       .  A
C24          H27   1.082       .  S
C25          C26   1.381       .  A
C25          H28   1.082       .  S
C26        C2553   1.482       .  S
N29          C33   1.363       .  A
N29          C30   1.361       .  A
N29        C2441   1.436       .  S
C30          C31   1.384       .  A
C30        C2449   1.488       .  S
C31          C32   1.372       .  A
C31          H34   1.082       .  S
C32          C33   1.384       .  A
C32          H35   1.082       .  S
C33        C2417   1.494       .  S
N36          C40   1.366       .  A
N36          C37   1.362       .  A
N36        C2433   1.449       .  S
C37          C38   1.380       .  A
C37        C2409   1.477       .  S
C38          C39   1.371       .  A
C38          H41   1.082       .  S
C39          C40   1.381       .  A
C39          H42   1.082       .  S
C40        C2385   1.483       .  S
N43          C47   1.361       .  A
N43          C44   1.360       .  A
N43        C2361   1.443       .  S
C44          C45   1.382       .  A
C44        C2369   1.477       .  S
C45          C46   1.374       .  A
C45          H48   1.082       .  S
C46          C47   1.380       .  A
C46          H49   1.082       .  S
C47        C2425   1.480       .  S
N50          C54   1.362       .  A
N50          C51   1.362       .  A
N50        C2353   1.435       .  S
C51          C52   1.384       .  A
C51        C2337   1.492       .  S
C52          C53   1.374       .  A
C52          H55   1.082       .  S
C53          C54   1.383       .  A
C53          H56   1.082       .  S
C54        C2393   1.495       .  S
N57          C61   1.362       .  A
N57          C58   1.361       .  A
N57        C2305   1.438       .  S
C58          C59   1.383       .  A
C58        C2321   1.484       .  S
C59          C60   1.373       .  A
C59          H62   1.082       .  S
C60          C61   1.382       .  A
C60          H63   1.082       .  S
C61        C2289   1.487       .  S
N64          C68   1.362       .  A
N64          C65   1.361       .  A
N64        C2313   1.438       .  S
C65          C66   1.384       .  A
C65        C2273   1.486       .  S
C66          C67   1.374       .  A
C66          H69   1.082       .  S
C67          C68   1.381       .  A
C67          H70   1.082       .  S
C68        C2257   1.488       .  S
N71          C75   1.359       .  A
N71          C72   1.359       .  A
N71        C2225   1.437       .  S
C72          C73   1.382       .  A
C72        C2241   1.481       .  S
C73          C74   1.373       .  A
C73          H76   1.082       .  S
C74          C75   1.383       .  A
C74          H77   1.082       .  S
C75        C2297   1.483       .  S
N78          C82   1.360       .  A
N78          C79   1.360       .  A
N78        C2233   1.438       .  S
C79          C80   1.384       .  A
C79        C2209   1.486       .  S
C80          C81   1.375       .  A
C80          H83   1.082       .  S
C81          C82   1.382       .  A
C81          H84   1.082       .  S
C82        C2265   1.485       .  S
O85         Ni93   1.910       .  S
O85          C95   1.280       .  A
O86         Ni93   1.918       .  S
O86          C96   1.282       .  A
O87         Ni93   1.934       .  S
O87          C97   1.284       .  A
O88         Ni93   1.933       .  S
O88          C98   1.284       .  A
O89         Ni94   1.904       .  S
O89          C98   1.280       .  A
O90         Ni94   1.916       .  S
O90          C97   1.281       .  A
O91         Ni94   1.932       .  S
O91          C96   1.284       .  A
O92         Ni94   1.930       .  S
O92          C95   1.285       .  A
Ni93        Ni94   2.385       .  S
C95        C2177   1.485       .  S
C96        C2169   1.486       .  S
C97        C2345   1.485       .  S
C98        C2201   1.484       .  S
O99        Ni107   1.929       .  S
O99         C109   1.284       .  A
O100       Ni107   1.939       .  S
O100        C110   1.285       .  A
O101       Ni107   1.925       .  S
O101        C111   1.282       .  A
O102       Ni107   1.912       .  S
O102        C112   1.280       .  A
O103       Ni108   1.923       .  S
O103        C112   1.284       .  A
O104       Ni108   1.925       .  S
O104        C111   1.283       .  A
O105       Ni108   1.914       .  S
O105        C110   1.280       .  A
O106       Ni108   1.911       .  S
O106        C109   1.281       .  A
Ni107      Ni108   2.386       .  S
C109       C2193   1.486       .  S
C110       C2537   1.483       .  S
C111       C2129   1.482       .  S
C112       C2145   1.482       .  S
O113       Ni121   1.918       .  S
O113        C123   1.281       .  A
O114       Ni121   1.923       .  S
O114        C124   1.281       .  A
O115       Ni121   1.932       .  S
O115        C125   1.285       .  A
O116       Ni121   1.929       .  S
O116        C126   1.284       .  A
O117       Ni122   1.902       .  S
O117        C126   1.279       .  A
O118       Ni122   1.911       .  S
O118        C125   1.281       .  A
O119       Ni122   1.925       .  S
O119        C124   1.283       .  A
O120       Ni122   1.922       .  S
O120        C123   1.283       .  A
Ni121      Ni122   2.385       .  S
C123       C2185   1.483       .  S
C124       C2217   1.481       .  S
C125       C2377   1.489       .  S
C126       C2113   1.480       .  S
O127       Ni135   1.913       .  S
O127        C137   1.281       .  A
O128       Ni135   1.923       .  S
O128        C138   1.282       .  A
O129       Ni135   1.916       .  S
O129        C139   1.280       .  A
O130       Ni135   1.908       .  S
O130        C140   1.280       .  A
O131       Ni136   1.925       .  S
O131        C140   1.283       .  A
O132       Ni136   1.924       .  S
O132        C139   1.282       .  A
O133       Ni136   1.919       .  S
O133        C138   1.281       .  A
O134       Ni136   1.917       .  S
O134        C137   1.282       .  A
Ni135      Ni136   2.388       .  S
C137       C2121   1.479       .  S
C138       C2585   1.477       .  S
C139       C2249   1.474       .  S
C140       C2153   1.482       .  S
N141        C145   1.365       .  A
N141        C142   1.360       .  A
N141       C2097   1.438       .  S
C142        C143   1.382       .  A
C142       C2161   1.486       .  S
C143        C144   1.373       .  A
C143        H146   1.082       .  S
C144        C145   1.384       .  A
C144        H147   1.082       .  S
C145       C2089   1.496       .  S
N148        C152   1.363       .  A
N148        C149   1.362       .  A
N148       C2105   1.435       .  S
C149        C150   1.382       .  A
C149       C2137   1.488       .  S
C150        C151   1.374       .  A
C150        H153   1.082       .  S
C151        C152   1.385       .  A
C151        H154   1.082       .  S
C152       C2065   1.499       .  S
N155        C159   1.364       .  A
N155        C156   1.359       .  A
N155       C2033   1.435       .  S
C156        C157   1.381       .  A
C156       C2057   1.483       .  S
C157        C158   1.373       .  A
C157        H160   1.082       .  S
C158        C159   1.385       .  A
C158        H161   1.082       .  S
C159       C2081   1.496       .  S
N162        C166   1.365       .  A
N162        C163   1.362       .  A
N162       C2041   1.436       .  S
C163        C164   1.382       .  A
C163       C2017   1.489       .  S
C164        C165   1.375       .  A
C164        H167   1.082       .  S
C165        C166   1.384       .  A
C165        H168   1.082       .  S
C166       C2073   1.497       .  S
O169       Ni177   1.925       .  S
O169        C179   1.284       .  A
O170       Ni177   1.929       .  S
O170        C180   1.283       .  A
O171       Ni177   1.917       .  S
O171        C181   1.282       .  A
O172       Ni177   1.905       .  S
O172        C182   1.279       .  A
O173       Ni178   1.931       .  S
O173        C182   1.285       .  A
O174       Ni178   1.932       .  S
O174        C181   1.284       .  A
O175       Ni178   1.917       .  S
O175        C180   1.281       .  A
O176       Ni178   1.908       .  S
O176        C179   1.280       .  A
Ni177      Ni178   2.386       .  S
C179       C2001   1.482       .  S
C180       C1969   1.478       .  S
C181       C2281   1.485       .  S
C182       C1985   1.483       .  S
O183       Ni191   1.927       .  S
O183        C193   1.284       .  A
O184       Ni191   1.931       .  S
O184        C194   1.284       .  A
O185       Ni191   1.911       .  S
O185        C195   1.280       .  A
O186       Ni191   1.903       .  S
O186        C196   1.279       .  A
O187       Ni192   1.927       .  S
O187        C196   1.284       .  A
O188       Ni192   1.925       .  S
O188        C195   1.283       .  A
O189       Ni192   1.916       .  S
O189        C194   1.281       .  A
O190       Ni192   1.907       .  S
O190        C193   1.280       .  A
Ni191      Ni192   2.386       .  S
C193       C1937   1.480       .  S
C194       C2049   1.484       .  S
C195       C1921   1.479       .  S
C196       C1953   1.478       .  S
O197       Ni205   1.926       .  S
O197        C207   1.284       .  A
O198       Ni205   1.931       .  S
O198        C208   1.284       .  A
O199       Ni205   1.919       .  S
O199        C209   1.281       .  A
O200       Ni205   1.907       .  S
O200        C210   1.279       .  A
O201       Ni206   1.925       .  S
O201        C210   1.284       .  A
O202       Ni206   1.924       .  S
O202        C209   1.283       .  A
O203       Ni206   1.923       .  S
O203        C208   1.283       .  A
O204       Ni206   1.910       .  S
O204        C207   1.279       .  A
Ni205      Ni206   2.387       .  S
C207       C1993   1.481       .  S
C208       C2025   1.487       .  S
C209       C1905   1.477       .  S
C210       C1961   1.480       .  S
O211       Ni219   1.925       .  S
O211        C221   1.283       .  A
O212       Ni219   1.927       .  S
O212        C222   1.283       .  A
O213       Ni219   1.911       .  S
O213        C223   1.280       .  A
O214       Ni219   1.909       .  S
O214        C224   1.280       .  A
O215       Ni220   1.925       .  S
O215        C224   1.284       .  A
O216       Ni220   1.938       .  S
O216        C223   1.285       .  A
O217       Ni220   1.920       .  S
O217        C222   1.281       .  A
O218       Ni220   1.910       .  S
O218        C221   1.280       .  A
Ni219      Ni220   2.386       .  S
C221       C2009   1.482       .  S
C222       C1889   1.482       .  S
C223       C2329   1.487       .  S
C224       C1945   1.481       .  S
N225        C229   1.360       .  A
N225        C226   1.361       .  A
N225       C1857   1.437       .  S
C226        C227   1.385       .  A
C226       C1881   1.487       .  S
C227        C228   1.371       .  A
C227        H230   1.082       .  S
C228        C229   1.382       .  A
C228        H231   1.082       .  S
C229       C1841   1.487       .  S
N232        C236   1.365       .  A
N232        C233   1.365       .  A
N232       C1865   1.448       .  S
C233        C234   1.384       .  A
C233       C1825   1.489       .  S
C234        C235   1.372       .  A
C234        H237   1.082       .  S
C235        C236   1.379       .  A
C235        H238   1.082       .  S
C236       C1809   1.483       .  S
N239        C243   1.361       .  A
N239        C240   1.359       .  A
N239       C1793   1.436       .  S
C240        C241   1.381       .  A
C240       C1913   1.480       .  S
C241        C242   1.373       .  A
C241        H244   1.082       .  S
C242        C243   1.384       .  A
C242        H245   1.082       .  S
C243       C1817   1.490       .  S
N246        C250   1.360       .  A
N246        C247   1.361       .  A
N246       C1801   1.444       .  S
C247        C248   1.384       .  A
C247       C1977   1.484       .  S
C248        C249   1.374       .  A
C248        H251   1.082       .  S
C249        C250   1.380       .  A
C249        H252   1.082       .  S
C250       C1849   1.478       .  S
N253        C257   1.361       .  A
N253        C254   1.360       .  A
N253       C1777   1.445       .  S
C254        C255   1.383       .  A
C254       C1929   1.481       .  S
C255        C256   1.370       .  A
C255        H258   1.082       .  S
C256        C257   1.381       .  A
C256        H259   1.082       .  S
C257       C1761   1.479       .  S
N260        C264   1.362       .  A
N260        C261   1.362       .  A
N260       C1785   1.439       .  S
C261        C262   1.383       .  A
C261       C1897   1.487       .  S
C262        C263   1.373       .  A
C262        H265   1.082       .  S
C263        C264   1.383       .  A
C263        H266   1.082       .  S
C264       C1745   1.489       .  S
N267        C271   1.359       .  A
N267        C268   1.358       .  A
N267       C1713   1.438       .  S
C268        C269   1.384       .  A
C268       C1737   1.485       .  S
C269        C270   1.375       .  A
C269        H272   1.082       .  S
C270        C271   1.382       .  A
C270        H273   1.082       .  S
C271       C1769   1.485       .  S
N274        C278   1.360       .  A
N274        C275   1.359       .  A
N274       C1721   1.435       .  S
C275        C276   1.381       .  A
C275       C1697   1.481       .  S
C276        C277   1.373       .  A
C276        H279   1.082       .  S
C277        C278   1.384       .  A
C277        H280   1.082       .  S
C278       C1753   1.489       .  S
N281        C285   1.363       .  A
N281        C282   1.362       .  A
N281       C1665   1.445       .  S
C282        C283   1.384       .  A
C282       C1681   1.484       .  S
C283        C284   1.373       .  A
C283        H286   1.082       .  S
C284        C285   1.380       .  A
C284        H287   1.082       .  S
C285       C1649   1.483       .  S
N288        C292   1.366       .  A
N288        C289   1.360       .  A
N288       C1673   1.438       .  S
C289        C290   1.380       .  A
C289       C1633   1.483       .  S
C290        C291   1.372       .  A
C290        H293   1.082       .  S
C291        C292   1.387       .  A
C291        H294   1.082       .  S
C292       C1625   1.500       .  S
N295        C299   1.363       .  A
N295        C296   1.359       .  A
N295       C1585   1.436       .  S
C296        C297   1.381       .  A
C296       C1601   1.485       .  S
C297        C298   1.374       .  A
C297        H300   1.082       .  S
C298        C299   1.386       .  A
C298        H301   1.082       .  S
C299       C1657   1.496       .  S
N302        C306   1.361       .  A
N302        C303   1.363       .  A
N302       C1593   1.443       .  S
C303        C304   1.385       .  A
C303       C1577   1.492       .  S
C304        C305   1.376       .  A
C304        H307   1.082       .  S
C305        C306   1.379       .  A
C305        H308   1.082       .  S
C306       C1617   1.483       .  S
O309       Ni317   1.911       .  S
O309        C319   1.281       .  A
O310       Ni317   1.916       .  S
O310        C320   1.279       .  A
O311       Ni317   1.918       .  S
O311        C321   1.282       .  A
O312       Ni317   1.915       .  S
O312        C322   1.282       .  A
O313       Ni318   1.921       .  S
O313        C322   1.282       .  A
O314       Ni318   1.927       .  S
O314        C321   1.283       .  A
O315       Ni318   1.929       .  S
O315        C320   1.283       .  A
O316       Ni318   1.916       .  S
O316        C319   1.282       .  A
Ni317      Ni318   2.388       .  S
C319       C1545   1.477       .  S
C320       C1569   1.473       .  S
C321       C1729   1.481       .  S
C322       C1553   1.483       .  S
O323       Ni331   1.908       .  S
O323        C333   1.280       .  A
O324       Ni331   1.921       .  S
O324        C334   1.281       .  A
O325       Ni331   1.932       .  S
O325        C335   1.284       .  A
O326       Ni331   1.933       .  S
O326        C336   1.285       .  A
O327       Ni332   1.903       .  S
O327        C336   1.279       .  A
O328       Ni332   1.912       .  S
O328        C335   1.281       .  A
O329       Ni332   1.926       .  S
O329        C334   1.282       .  A
O330       Ni332   1.925       .  S
O330        C333   1.283       .  A
Ni331      Ni332   2.386       .  S
C333       C1521   1.482       .  S
C334       C1609   1.476       .  S
C335       C1873   1.483       .  S
C336       C1561   1.483       .  S
O337       Ni345   1.916       .  S
O337        C347   1.281       .  A
O338       Ni345   1.923       .  S
O338        C348   1.283       .  A
O339       Ni345   1.914       .  S
O339        C349   1.280       .  A
O340       Ni345   1.908       .  S
O340        C350   1.281       .  A
O341       Ni346   1.915       .  S
O341        C350   1.281       .  A
O342       Ni346   1.918       .  S
O342        C349   1.280       .  A
O343       Ni346   1.918       .  S
O343        C348   1.282       .  A
O344       Ni346   1.920       .  S
O344        C347   1.283       .  A
Ni345      Ni346   2.389       .  S
C347       C1505   1.481       .  S
C348       C1705   1.483       .  S
C349       C1489   1.465       .  S
C350       C1537   1.476       .  S
O351       Ni359   1.918       .  S
O351        C361   1.281       .  A
O352       Ni359   1.918       .  S
O352        C362   1.281       .  A
O353       Ni359   1.928       .  S
O353        C363   1.283       .  A
O354       Ni359   1.926       .  S
O354        C364   1.284       .  A
O355       Ni360   1.911       .  S
O355        C364   1.280       .  A
O356       Ni360   1.923       .  S
O356        C363   1.282       .  A
O357       Ni360   1.926       .  S
O357        C362   1.283       .  A
O358       Ni360   1.915       .  S
O358        C361   1.282       .  A
Ni359      Ni360   2.387       .  S
C361       C1529   1.481       .  S
C362       C1473   1.478       .  S
C363       C1833   1.483       .  S
C364       C1513   1.483       .  S
N365        C369   1.362       .  A
N365        C366   1.360       .  A
N365       C1441   1.443       .  S
C366        C367   1.384       .  A
C366       C1457   1.484       .  S
C367        C368   1.373       .  A
C367        H370   1.082       .  S
C368        C369   1.380       .  A
C368        H371   1.082       .  S
C369       C1425   1.479       .  S
N372        C376   1.360       .  A
N372        C373   1.361       .  A
N372       C1449   1.437       .  S
C373        C374   1.385       .  A
C373       C1409   1.487       .  S
C374        C375   1.372       .  A
C374        H377   1.082       .  S
C375        C376   1.381       .  A
C375        H378   1.082       .  S
C376       C1393   1.487       .  S
N379        C383   1.361       .  A
N379        C380   1.360       .  A
N379       C1377   1.443       .  S
C380        C381   1.382       .  A
C380       C1481   1.479       .  S
C381        C382   1.373       .  A
C381        H384   1.082       .  S
C382        C383   1.381       .  A
C382        H385   1.082       .  S
C383       C1401   1.478       .  S
N386        C390   1.358       .  A
N386        C387   1.357       .  A
N386       C1385   1.436       .  S
C387        C388   1.381       .  A
C387       C1497   1.478       .  S
C388        C389   1.372       .  A
C388        H391   1.082       .  S
C389        C390   1.385       .  A
C389        H392   1.082       .  S
C390       C1433   1.485       .  S
O393       Ni401   1.923       .  S
O393        C403   1.283       .  A
O394       Ni401   1.923       .  S
O394        C404   1.283       .  A
O395       Ni401   1.915       .  S
O395        C405   1.281       .  A
O396       Ni401   1.916       .  S
O396        C406   1.281       .  A
O397       Ni402   1.917       .  S
O397        C406   1.282       .  A
O398       Ni402   1.924       .  S
O398        C405   1.283       .  A
O399       Ni402   1.922       .  S
O399        C404   1.282       .  A
O400       Ni402   1.911       .  S
O400        C403   1.280       .  A
Ni401      Ni402   2.387       .  S
C403       C1345   1.481       .  S
C404       C1465   1.481       .  S
C405       C1329   1.477       .  S
C406       C1361   1.481       .  S
O407       Ni415   1.922       .  S
O407        C417   1.283       .  A
O408       Ni415   1.916       .  S
O408        C418   1.282       .  A
O409       Ni415   1.916       .  S
O409        C419   1.281       .  A
O410       Ni415   1.911       .  S
O410        C420   1.280       .  A
O411       Ni416   1.924       .  S
O411        C420   1.283       .  A
O412       Ni416   1.932       .  S
O412        C419   1.284       .  A
O413       Ni416   1.920       .  S
O413        C418   1.282       .  A
O414       Ni416   1.911       .  S
O414        C417   1.280       .  A
Ni415      Ni416   2.387       .  S
C417       C1313   1.480       .  S
C418       C1281   1.480       .  S
C419       C1641   1.481       .  S
C420       C1297   1.482       .  S
O421       Ni429   1.930       .  S
O421        C431   1.285       .  A
O422       Ni429   1.941       .  S
O422        C432   1.287       .  A
O423       Ni429   1.920       .  S
O423        C433   1.281       .  A
O424       Ni429   1.911       .  S
O424        C434   1.280       .  A
O425       Ni430   1.921       .  S
O425        C434   1.283       .  A
O426       Ni430   1.926       .  S
O426        C433   1.284       .  A
O427       Ni430   1.909       .  S
O427        C432   1.280       .  A
O428       Ni430   1.908       .  S
O428        C431   1.280       .  A
Ni429      Ni430   2.385       .  S
C431       C1353   1.484       .  S
C432       C1689   1.493       .  S
C433       C1265   1.486       .  S
C434       C1321   1.478       .  S
O435       Ni443   1.922       .  S
O435        C445   1.283       .  A
O436       Ni443   1.922       .  S
O436        C446   1.282       .  A
O437       Ni443   1.917       .  S
O437        C447   1.280       .  A
O438       Ni443   1.910       .  S
O438        C448   1.281       .  A
O439       Ni444   1.924       .  S
O439        C448   1.283       .  A
O440       Ni444   1.921       .  S
O440        C447   1.282       .  A
O441       Ni444   1.921       .  S
O441        C446   1.282       .  A
O442       Ni444   1.913       .  S
O442        C445   1.281       .  A
Ni443      Ni444   2.387       .  S
C445       C1305   1.482       .  S
C446       C1417   1.480       .  S
C447       C1249   1.471       .  S
C448       C1369   1.482       .  S
O449       Ni457   1.912       .  S
O449        C459   1.281       .  A
O450       Ni457   1.914       .  S
O450        C460   1.281       .  A
O451       Ni457   1.916       .  S
O451        C461   1.281       .  A
O452       Ni457   1.914       .  S
O452        C462   1.282       .  A
O453       Ni458   1.925       .  S
O453        C462   1.283       .  A
O454       Ni458   1.933       .  S
O454        C461   1.285       .  A
O455       Ni458   1.930       .  S
O455        C460   1.283       .  A
O456       Ni458   1.921       .  S
O456        C459   1.282       .  A
Ni457      Ni458   2.386       .  S
C459       C1233   1.480       .  S
C460       C2473   1.483       .  S
C461       C1201   1.488       .  S
C462       C1225   1.485       .  S
O463       Ni471   1.913       .  S
O463        C473   1.281       .  A
O464       Ni471   1.911       .  S
O464        C474   1.281       .  A
O465       Ni471   1.919       .  S
O465        C475   1.281       .  A
O466       Ni471   1.918       .  S
O466        C476   1.282       .  A
O467       Ni472   1.922       .  S
O467        C476   1.282       .  A
O468       Ni472   1.930       .  S
O468        C475   1.283       .  A
O469       Ni472   1.934       .  S
O469        C474   1.284       .  A
O470       Ni472   1.923       .  S
O470        C473   1.283       .  A
Ni471      Ni472   2.386       .  S
C473       C1185   1.483       .  S
C474       C2457   1.484       .  S
C475       C1153   1.481       .  S
C476       C1177   1.485       .  S
O477       Ni485   1.921       .  S
O477        C487   1.283       .  A
O478       Ni485   1.932       .  S
O478        C488   1.284       .  A
O479       Ni485   1.932       .  S
O479        C489   1.284       .  A
O480       Ni485   1.917       .  S
O480        C490   1.282       .  A
O481       Ni486   1.921       .  S
O481        C490   1.282       .  A
O482       Ni486   1.919       .  S
O482        C489   1.282       .  A
O483       Ni486   1.915       .  S
O483        C488   1.280       .  A
O484       Ni486   1.917       .  S
O484        C487   1.281       .  A
Ni485      Ni486   2.386       .  S
C487       C1217   1.483       .  S
C488       C1137   1.479       .  S
C489       C2497   1.488       .  S
C490       C1193   1.483       .  S
O491       Ni499   1.915       .  S
O491        C501   1.281       .  A
O492       Ni499   1.916       .  S
O492        C502   1.282       .  A
O493       Ni499   1.926       .  S
O493        C503   1.283       .  A
O494       Ni499   1.922       .  S
O494        C504   1.283       .  A
O495       Ni500   1.918       .  S
O495        C504   1.282       .  A
O496       Ni500   1.924       .  S
O496        C503   1.282       .  A
O497       Ni500   1.928       .  S
O497        C502   1.283       .  A
O498       Ni500   1.916       .  S
O498        C501   1.282       .  A
Ni499      Ni500   2.385       .  S
C501       C1241   1.480       .  S
C502       C2401   1.488       .  S
C503       C1121   1.484       .  S
C504       C1169   1.485       .  S
N505        C509   1.357       .  A
N505        C506   1.362       .  A
N505       C1089   1.441       .  S
C506        C507   1.387       .  A
C506       C1113   1.488       .  S
C507        C508   1.371       .  A
C507        H510   1.082       .  S
C508        C509   1.378       .  A
C508        H511   1.082       .  S
C509       C1073   1.473       .  S
N512        C516   1.357       .  A
N512        C513   1.358       .  A
N512       C1097   1.435       .  S
C513        C514   1.383       .  A
C513       C1057   1.481       .  S
C514        C515   1.373       .  A
C514        H517   1.082       .  S
C515        C516   1.383       .  A
C515        H518   1.082       .  S
C516       C1041   1.483       .  S
N519        C523   1.359       .  A
N519        C520   1.361       .  A
N519       C1025   1.445       .  S
C520        C521   1.385       .  A
C520       C1257   1.484       .  S
C521        C522   1.372       .  A
C521        H524   1.082       .  S
C522        C523   1.379       .  A
C522        H525   1.082       .  S
C523       C1049   1.474       .  S
N526        C530   1.357       .  A
N526        C527   1.359       .  A
N526       C1033   1.436       .  S
C527        C528   1.385       .  A
C527       C1289   1.482       .  S
C528        C529   1.370       .  A
C528        H531   1.082       .  S
C529        C530   1.381       .  A
C529        H532   1.082       .  S
C530       C1081   1.480       .  S
N533        C537   1.362       .  A
N533        C534   1.359       .  A
N533       C1009   1.444       .  S
C534        C535   1.383       .  A
C534       C1337   1.480       .  S
C535        C536   1.371       .  A
C535        H538   1.082       .  S
C536        C537   1.380       .  A
C536        H539   1.082       .  S
C537        C993   1.479       .  S
N540        C544   1.362       .  A
N540        C541   1.359       .  A
N540       C1017   1.435       .  S
C541        C542   1.383       .  A
C541       C1273   1.486       .  S
C542        C543   1.377       .  A
C542        H545   1.082       .  S
C543        C544   1.384       .  A
C543        H546   1.082       .  S
C544        C985   1.496       .  S
N547        C551   1.360       .  A
N547        C548   1.359       .  A
N547        C945   1.436       .  S
C548        C549   1.383       .  A
C548        C961   1.483       .  S
C549        C550   1.371       .  A
C549        H552   1.082       .  S
C550        C551   1.384       .  A
C550        H553   1.082       .  S
C551       C1001   1.488       .  S
N554        C558   1.363       .  A
N554        C555   1.363       .  A
N554        C953   1.445       .  S
C555        C556   1.381       .  A
C555        C937   1.482       .  S
C556        C557   1.373       .  A
C556        H559   1.082       .  S
C557        C558   1.381       .  A
C557        H560   1.082       .  S
C558        C977   1.482       .  S
N561        C565   1.361       .  A
N561        C562   1.362       .  A
N561        C913   1.437       .  S
C562        C563   1.384       .  A
C562       C1129   1.489       .  S
C563        C564   1.373       .  A
C563        H566   1.082       .  S
C564        C565   1.382       .  A
C564        H567   1.082       .  S
C565        C897   1.489       .  S
N568        C572   1.363       .  A
N568        C569   1.360       .  A
N568        C921   1.441       .  S
C569        C570   1.380       .  A
C569       C1209   1.480       .  S
C570        C571   1.374       .  A
C570        H573   1.082       .  S
C571        C572   1.385       .  A
C571        H574   1.082       .  S
C572        C881   1.491       .  S
N575        C579   1.360       .  A
N575        C576   1.361       .  A
N575        C849   1.437       .  S
C576        C577   1.384       .  A
C576        C865   1.486       .  S
C577        C578   1.374       .  A
C577        H580   1.082       .  S
C578        C579   1.382       .  A
C578        H581   1.082       .  S
C579        C905   1.487       .  S
N582        C586   1.364       .  A
N582        C583   1.364       .  A
N582        C857   1.443       .  S
C583        C584   1.384       .  A
C583        C833   1.488       .  S
C584        C585   1.370       .  A
C584        H587   1.082       .  S
C585        C586   1.382       .  A
C585        H588   1.082       .  S
C586        C889   1.489       .  S
O589       Ni597   1.915       .  S
O589        C599   1.281       .  A
O590       Ni597   1.923       .  S
O590        C600   1.283       .  A
O591       Ni597   1.925       .  S
O591        C601   1.283       .  A
O592       Ni597   1.922       .  S
O592        C602   1.282       .  A
O593       Ni598   1.900       .  S
O593        C602   1.280       .  A
O594       Ni598   1.911       .  S
O594        C601   1.281       .  A
O595       Ni598   1.922       .  S
O595        C600   1.281       .  A
O596       Ni598   1.917       .  S
O596        C599   1.282       .  A
Ni597      Ni598   2.386       .  S
C599        C809   1.480       .  S
C600        C841   1.482       .  S
C601        C969   1.480       .  S
C602        C817   1.476       .  S
O603       Ni611   1.922       .  S
O603        C613   1.283       .  A
O604       Ni611   1.926       .  S
O604        C614   1.283       .  A
O605       Ni611   1.912       .  S
O605        C615   1.279       .  A
O606       Ni611   1.900       .  S
O606        C616   1.279       .  A
O607       Ni612   1.921       .  S
O607        C616   1.282       .  A
O608       Ni612   1.921       .  S
O608        C615   1.281       .  A
O609       Ni612   1.921       .  S
O609        C614   1.282       .  A
O610       Ni612   1.917       .  S
O610        C613   1.282       .  A
Ni611      Ni612   2.388       .  S
C613        C785   1.484       .  S
C614        C873   1.482       .  S
C615       C1105   1.465       .  S
C616        C825   1.474       .  S
O617       Ni625   1.914       .  S
O617        C627   1.281       .  A
O618       Ni625   1.914       .  S
O618        C628   1.279       .  A
O619       Ni625   1.922       .  S
O619        C629   1.281       .  A
O620       Ni625   1.922       .  S
O620        C630   1.284       .  A
O621       Ni626   1.912       .  S
O621        C630   1.280       .  A
O622       Ni626   1.917       .  S
O622        C629   1.280       .  A
O623       Ni626   1.929       .  S
O623        C628   1.283       .  A
O624       Ni626   1.923       .  S
O624        C627   1.283       .  A
Ni625      Ni626   2.389       .  S
C627        C793   1.484       .  S
C628        C753   1.472       .  S
C629       C1065   1.470       .  S
C630        C769   1.482       .  S
O631       Ni639   1.913       .  S
O631        C641   1.281       .  A
O632       Ni639   1.923       .  S
O632        C642   1.281       .  A
O633       Ni639   1.941       .  S
O633        C643   1.286       .  A
O634       Ni639   1.938       .  S
O634        C644   1.286       .  A
O635       Ni640   1.898       .  S
O635        C644   1.278       .  A
O636       Ni640   1.908       .  S
O636        C643   1.280       .  A
O637       Ni640   1.920       .  S
O637        C642   1.281       .  A
O638       Ni640   1.916       .  S
O638        C641   1.282       .  A
Ni639      Ni640   2.386       .  S
C641        C801   1.479       .  S
C642        C745   1.472       .  S
C643        C929   1.492       .  S
C644        C777   1.484       .  S
N645        C649   1.362       .  A
N645        C646   1.364       .  A
N645        C721   1.437       .  S
C646        C647   1.384       .  A
C646       C1161   1.492       .  S
C647        C648   1.372       .  A
C647        H650   1.082       .  S
C648        C649   1.381       .  A
C648        H651   1.082       .  S
C649        C705   1.489       .  S
N652        C656   1.360       .  A
N652        C653   1.362       .  A
N652        C729   1.437       .  S
C653        C654   1.387       .  A
C653       C1145   1.493       .  S
C654        C655   1.373       .  A
C654        H657   1.082       .  S
C655        C656   1.379       .  A
C655        H658   1.082       .  S
C656        C697   1.484       .  S
N659        C663   1.360       .  A
N659        C660   1.361       .  A
N659        C673   1.438       .  S
C660        C661   1.384       .  A
C660        C737   1.488       .  S
C661        C662   1.373       .  A
C661        H664   1.082       .  S
C662        C663   1.381       .  A
C662        H665   1.082       .  S
C663        C713   1.484       .  S
N666        C670   1.358       .  A
N666        C667   1.360       .  A
N666        C681   1.437       .  S
C667        C668   1.384       .  A
C667        C761   1.484       .  S
C668        C669   1.374       .  A
C668        H671   1.082       .  S
C669        C670   1.381       .  A
C669        H672   1.082       .  S
C670        C689   1.482       .  S
C673        C674   1.402       .  A
C673        C678   1.403       .  A
C674        C675   1.398       .  A
C674        H683   1.082       .  S
C675        C676   1.403       .  A
C675        H684   1.084       .  S
C676        C682   1.405       .  A
C676        C677   1.416       .  A
C677        C679   1.402       .  A
C677        C678   1.405       .  A
C678        H685   1.083       .  S
C679        C680   1.398       .  A
C679        H686   1.084       .  S
C680        C681   1.402       .  A
C680        H687   1.083       .  S
C681        C682   1.402       .  A
C682        H688   1.083       .  S
C689        C690   1.404       .  A
C689        C694   1.405       .  A
C690        C691   1.400       .  A
C690        H699   1.080       .  S
C691        C692   1.404       .  A
C691        H700   1.084       .  S
C692        C698   1.408       .  A
C692        C693   1.414       .  A
C693        C695   1.401       .  A
C693        C694   1.405       .  A
C694        H701   1.084       .  S
C695        C696   1.397       .  A
C695        H702   1.084       .  S
C696        C697   1.404       .  A
C696        H703   1.079       .  S
C697        C698   1.407       .  A
C698        H704   1.084       .  S
C705        C706   1.406       .  A
C705        C710   1.407       .  A
C706        C707   1.398       .  A
C706        H715   1.083       .  S
C707        C708   1.401       .  A
C707        H716   1.084       .  S
C708        C714   1.409       .  A
C708        C709   1.415       .  A
C709        C711   1.402       .  A
C709        C710   1.410       .  A
C710        H717   1.081       .  S
C711        C712   1.399       .  A
C711        H718   1.084       .  S
C712        C713   1.405       .  A
C712        H719   1.083       .  S
C713        C714   1.404       .  A
C714        H720   1.083       .  S
C721        C722   1.402       .  A
C721        C726   1.403       .  A
C722        C723   1.399       .  A
C722        H731   1.082       .  S
C723        C724   1.403       .  A
C723        H732   1.084       .  S
C724        C730   1.404       .  A
C724        C725   1.414       .  A
C725        C727   1.403       .  A
C725        C726   1.404       .  A
C726        H733   1.084       .  S
C727        C728   1.399       .  A
C727        H734   1.084       .  S
C728        C729   1.401       .  A
C728        H735   1.082       .  S
C729        C730   1.404       .  A
C730        H736   1.084       .  S
C737        C738   1.405       .  A
C737        C742   1.408       .  A
C738        C739   1.403       .  A
C738        H747   1.082       .  S
C739        C740   1.406       .  A
C739        H748   1.083       .  S
C740        C746   1.408       .  A
C740        C741   1.413       .  A
C741        C743   1.404       .  A
C741        C742   1.403       .  A
C742        H749   1.084       .  S
C743        C744   1.398       .  A
C743        H750   1.083       .  S
C744        C745   1.400       .  A
C744        H751   1.083       .  S
C745        C746   1.407       .  A
C746        H752   1.084       .  S
C753        C754   1.401       .  A
C753        C758   1.406       .  A
C754        C755   1.399       .  A
C754        H763   1.083       .  S
C755        C756   1.404       .  A
C755        H764   1.084       .  S
C756        C762   1.404       .  A
C756        C757   1.413       .  A
C757        C759   1.405       .  A
C757        C758   1.407       .  A
C758        H765   1.085       .  S
C759        C760   1.401       .  A
C759        H766   1.084       .  S
C760        C761   1.404       .  A
C760        H767   1.082       .  S
C761        C762   1.408       .  A
C762        H768   1.085       .  S
C769        C770   1.408       .  A
C769        C774   1.403       .  A
C770        C771   1.401       .  A
C770        H779   1.083       .  S
C771        C772   1.403       .  A
C771        H780   1.083       .  S
C772        C778   1.410       .  A
C772        C773   1.415       .  A
C773        C775   1.396       .  A
C773        C774   1.401       .  A
C774        H781   1.084       .  S
C775        C776   1.391       .  A
C775        H782   1.084       .  S
C776        C777   1.409       .  A
C776        H783   1.083       .  S
C777        C778   1.409       .  A
C778        H784   1.084       .  S
C785        C786   1.407       .  A
C785        C790   1.408       .  A
C786        C787   1.398       .  A
C786        H795   1.083       .  S
C787        C788   1.402       .  A
C787        H796   1.084       .  S
C788        C794   1.404       .  A
C788        C789   1.413       .  A
C789        C791   1.402       .  A
C789        C790   1.405       .  A
C790        H797   1.084       .  S
C791        C792   1.398       .  A
C791        H798   1.084       .  S
C792        C793   1.406       .  A
C792        H799   1.083       .  S
C793        C794   1.409       .  A
C794        H800   1.084       .  S
C801        C802   1.406       .  A
C801        C806   1.406       .  A
C802        C803   1.396       .  A
C802        H811   1.083       .  S
C803        C804   1.401       .  A
C803        H812   1.084       .  S
C804        C810   1.402       .  A
C804        C805   1.413       .  A
C805        C807   1.401       .  A
C805        C806   1.402       .  A
C806        H813   1.084       .  S
C807        C808   1.397       .  A
C807        H814   1.084       .  S
C808        C809   1.406       .  A
C808        H815   1.083       .  S
C809        C810   1.406       .  A
C810        H816   1.084       .  S
C817        C818   1.406       .  A
C817        C822   1.403       .  A
C818        C819   1.401       .  A
C818        H827   1.083       .  S
C819        C820   1.404       .  A
C819        H828   1.083       .  S
C820        C826   1.405       .  A
C820        C821   1.413       .  A
C821        C823   1.398       .  A
C821        C822   1.395       .  A
C822        H829   1.084       .  S
C823        C824   1.389       .  A
C823        H830   1.084       .  S
C824        C825   1.405       .  A
C824        H831   1.083       .  S
C825        C826   1.407       .  A
C826        H832   1.084       .  S
C833        C834   1.405       .  A
C833        C838   1.407       .  A
C834        C835   1.405       .  A
C834        H843   1.082       .  S
C835        C836   1.407       .  A
C835        H844   1.083       .  S
C836        C842   1.410       .  A
C836        C837   1.412       .  A
C837        C839   1.403       .  A
C837        C838   1.403       .  A
C838        H845   1.084       .  S
C839        C840   1.397       .  A
C839        H846   1.084       .  S
C840        C841   1.403       .  A
C840        H847   1.083       .  S
C841        C842   1.411       .  A
C842        H848   1.084       .  S
C849        C850   1.402       .  A
C849        C854   1.401       .  A
C850        C851   1.402       .  A
C850        H859   1.083       .  S
C851        C852   1.406       .  A
C851        H860   1.083       .  S
C852        C858   1.408       .  A
C852        C853   1.415       .  A
C853        C855   1.401       .  A
C853        C854   1.403       .  A
C854        H861   1.084       .  S
C855        C856   1.396       .  A
C855        H862   1.083       .  S
C856        C857   1.404       .  A
C856        H863   1.082       .  S
C857        C858   1.407       .  A
C858        H864   1.084       .  S
C865        C866   1.404       .  A
C865        C870   1.408       .  A
C866        C867   1.404       .  A
C866        H875   1.082       .  S
C867        C868   1.407       .  A
C867        H876   1.083       .  S
C868        C874   1.410       .  A
C868        C869   1.413       .  A
C869        C871   1.403       .  A
C869        C870   1.404       .  A
C870        H877   1.085       .  S
C871        C872   1.398       .  A
C871        H878   1.084       .  S
C872        C873   1.404       .  A
C872        H879   1.083       .  S
C873        C874   1.410       .  A
C874        H880   1.084       .  S
C881        C882   1.407       .  A
C881        C886   1.404       .  A
C882        C883   1.406   1_655  A
C882        H891   1.083       .  S
C883        C884   1.407       .  A
C883        H892   1.084       .  S
C884        C890   1.414       .  A
C884        C885   1.414       .  A
C885        C887   1.398       .  A
C885        C886   1.400   1_455  A
C886        H893   1.084       .  S
C887        C888   1.392       .  A
C887        H894   1.084       .  S
C888        C889   1.405       .  A
C888        H895   1.083       .  S
C889        C890   1.411       .  A
C890        H896   1.084       .  S
C897        C898   1.406       .  A
C897        C902   1.407       .  A
C898        C899   1.398   1_655  A
C898        H907   1.083       .  S
C899        C900   1.401       .  A
C899        H908   1.084       .  S
C900        C906   1.410       .  A
C900        C901   1.416       .  A
C901        C903   1.402       .  A
C901        C902   1.411   1_455  A
C902        H909   1.083       .  S
C903        C904   1.399       .  A
C903        H910   1.084   1_455  S
C904        C905   1.406       .  A
C904        H911   1.083       .  S
C905        C906   1.405       .  A
C906        H912   1.084       .  S
C913        C914   1.401       .  A
C913        C918   1.404       .  A
C914        C915   1.399       .  A
C914        H923   1.083       .  S
C915        C916   1.404       .  A
C915        H924   1.083       .  S
C916        C922   1.405       .  A
C916        C917   1.414       .  A
C917        C919   1.403       .  A
C917        C918   1.404       .  A
C918        H925   1.084       .  S
C919        C920   1.398       .  A
C919        H926   1.083       .  S
C920        C921   1.404       .  A
C920        H927   1.083       .  S
C921        C922   1.405       .  A
C922        H928   1.081       .  S
C929        C930   1.409       .  A
C929        C934   1.412       .  A
C930        C931   1.395       .  A
C930        H939   1.083       .  S
C931        C932   1.398       .  A
C931        H940   1.084       .  S
C932        C938   1.405       .  A
C932        C933   1.414       .  A
C933        C935   1.406       .  A
C933        C934   1.415       .  A
C934        H941   1.084       .  S
C935        C936   1.405       .  A
C935        H942   1.083       .  S
C936        C937   1.405       .  A
C936        H943   1.082       .  S
C937        C938   1.403       .  A
C938        H944   1.085       .  S
C945        C946   1.401       .  A
C945        C950   1.403       .  A
C946        C947   1.399       .  A
C946        H955   1.083       .  S
C947        C948   1.404       .  A
C947        H956   1.084       .  S
C948        C954   1.406       .  A
C948        C949   1.414       .  A
C949        C951   1.401       .  A
C949        C950   1.406       .  A
C950        H957   1.084       .  S
C951        C952   1.398       .  A
C951        H958   1.084       .  S
C952        C953   1.405       .  A
C952        H959   1.080       .  S
C953        C954   1.406       .  A
C954        H960   1.078       .  S
C961        C962   1.404       .  A
C961        C966   1.405       .  A
C962        C963   1.403       .  A
C962        H971   1.081       .  S
C963        C964   1.406       .  A
C963        H972   1.083       .  S
C964        C970   1.408       .  A
C964        C965   1.413       .  A
C965        C967   1.401       .  A
C965        C966   1.401       .  A
C966        H973   1.085       .  S
C967        C968   1.395       .  A
C967        H974   1.084       .  S
C968        C969   1.405       .  A
C968        H975   1.083       .  S
C969        C970   1.409       .  A
C970        H976   1.084       .  S
C977        C978   1.404       .  A
C977        C982   1.406       .  A
C978        C979   1.399       .  A
C978        H987   1.083       .  S
C979        C980   1.403   1_545  A
C979        H988   1.084       .  S
C980        C986   1.408       .  A
C980        C981   1.413       .  A
C981        C983   1.402       .  A
C981        C982   1.409   1_565  A
C982        H989   1.084       .  S
C983        C984   1.400       .  A
C983        H990   1.084       .  S
C984        C985   1.407       .  A
C984        H991   1.077       .  S
C985        C986   1.409       .  A
C986        H992   1.084       .  S
C993        C994   1.405       .  A
C993        C998   1.401       .  A
C994        C995   1.401       .  A
C994       H1003   1.083       .  S
C995        C996   1.404       .  A
C995       H1004   1.084   1_565  S
C996       C1002   1.408   1_565  A
C996        C997   1.413       .  A
C997        C999   1.399       .  A
C997        C998   1.402       .  A
C998       H1005   1.082       .  S
C999       C1000   1.394   1_565  A
C999       H1006   1.084       .  S
C1000      C1001   1.406       .  A
C1000      H1007   1.083       .  S
C1001      C1002   1.408       .  A
C1002      H1008   1.079       .  S
C1009      C1010   1.403       .  A
C1009      C1014   1.407       .  A
C1010      C1011   1.396       .  A
C1010      H1019   1.076       .  S
C1011      C1012   1.400       .  A
C1011      H1020   1.084       .  S
C1012      C1018   1.402       .  A
C1012      C1013   1.414       .  A
C1013      C1015   1.404       .  A
C1013      C1014   1.407       .  A
C1014      H1021   1.084       .  S
C1015      C1016   1.400       .  A
C1015      H1022   1.083       .  S
C1016      C1017   1.403       .  A
C1016      H1023   1.083       .  S
C1017      C1018   1.400       .  A
C1018      H1024   1.084       .  S
C1025      C1026   1.406       .  A
C1025      C1030   1.404       .  A
C1026      C1027   1.400       .  A
C1026      H1035   1.083       .  S
C1027      C1028   1.403       .  A
C1027      H1036   1.083       .  S
C1028      C1034   1.407       .  A
C1028      C1029   1.415       .  A
C1029      C1031   1.402       .  A
C1029      C1030   1.403       .  A
C1030      H1037   1.080       .  S
C1031      C1032   1.396       .  A
C1031      H1038   1.084       .  S
C1032      C1033   1.401       .  A
C1032      H1039   1.083       .  S
C1033      C1034   1.404       .  A
C1034      H1040   1.084       .  S
C1041      C1042   1.404       .  A
C1041      C1046   1.405       .  A
C1042      C1043   1.401       .  A
C1042      H1051   1.081       .  S
C1043      C1044   1.404       .  A
C1043      H1052   1.083       .  S
C1044      C1050   1.407       .  A
C1044      C1045   1.414       .  A
C1045      C1047   1.401       .  A
C1045      C1046   1.401       .  A
C1046      H1053   1.085       .  S
C1047      C1048   1.395       .  A
C1047      H1054   1.084       .  S
C1048      C1049   1.402       .  A
C1048      H1055   1.084       .  S
C1049      C1050   1.405       .  A
C1050      H1056   1.084       .  S
C1057      C1058   1.403       .  A
C1057      C1062   1.407       .  A
C1058      C1059   1.400       .  A
C1058      H1067   1.081       .  S
C1059      C1060   1.405       .  A
C1059      H1068   1.083       .  S
C1060      C1066   1.405       .  A
C1060      C1061   1.413       .  A
C1061      C1063   1.405       .  A
C1061      C1062   1.403       .  A
C1062      H1069   1.084       .  S
C1063      C1064   1.399       .  A
C1063      H1070   1.083       .  S
C1064      C1065   1.401       .  A
C1064      H1071   1.083       .  S
C1065      C1066   1.405       .  A
C1066      H1072   1.085       .  S
C1073      C1074   1.401       .  A
C1073      C1078   1.405       .  A
C1074      C1075   1.393       .  A
C1074      H1083   1.084       .  S
C1075      C1076   1.400       .  A
C1075      H1084   1.084       .  S
C1076      C1082   1.399       .  A
C1076      C1077   1.415       .  A
C1077      C1079   1.406       .  A
C1077      C1078   1.408       .  A
C1078      H1085   1.084       .  S
C1079      C1080   1.403       .  A
C1079      H1086   1.083       .  S
C1080      C1081   1.404       .  A
C1080      H1087   1.082       .  S
C1081      C1082   1.402       .  A
C1082      H1088   1.085       .  S
C1089      C1090   1.404       .  A
C1089      C1094   1.403       .  A
C1090      C1091   1.401       .  A
C1090      H1099   1.083       .  S
C1091      C1092   1.404       .  A
C1091      H1100   1.083       .  S
C1092      C1098   1.406       .  A
C1092      C1093   1.415       .  A
C1093      C1095   1.402       .  A
C1093      C1094   1.401       .  A
C1094      H1101   1.083       .  S
C1095      C1096   1.395       .  A
C1095      H1102   1.084       .  S
C1096      C1097   1.400       .  A
C1096      H1103   1.083       .  S
C1097      C1098   1.404       .  A
C1098      H1104   1.084       .  S
C1105      C1106   1.399       .  A
C1105      C1110   1.404       .  A
C1106      C1107   1.398       .  A
C1106      H1115   1.083       .  S
C1107      C1108   1.405       .  A
C1107      H1116   1.084       .  S
C1108      C1114   1.401       .  A
C1108      C1109   1.412       .  A
C1109      C1111   1.404       .  A
C1109      C1110   1.404       .  A
C1110      H1117   1.085       .  S
C1111      C1112   1.400       .  A
C1111      H1118   1.084       .  S
C1112      C1113   1.406       .  A
C1112      H1119   1.081       .  S
C1113      C1114   1.409       .  A
C1114      H1120   1.084       .  S
C1121      C1122   1.404       .  A
C1121      C1126   1.411       .  A
C1122      C1123   1.400       .  A
C1122      H1131   1.083       .  S
C1123      C1124   1.404       .  A
C1123      H1132   1.084       .  S
C1124      C1130   1.405       .  A
C1124      C1125   1.412       .  A
C1125      C1127   1.407       .  A
C1125      C1126   1.410       .  A
C1126      H1133   1.084       .  S
C1127      C1128   1.404       .  A
C1127      H1134   1.083       .  S
C1128      C1129   1.404       .  A
C1128      H1135   1.083       .  S
C1129      C1130   1.409       .  A
C1130      H1136   1.084       .  S
C1137      C1138   1.402       .  A
C1137      C1142   1.410       .  A
C1138      C1139   1.396       .  A
C1138      H1147   1.083       .  S
C1139      C1140   1.403       .  A
C1139      H1148   1.084       .  S
C1140      C1146   1.403       .  A
C1140      C1141   1.412       .  A
C1141      C1143   1.407       .  A
C1141      C1142   1.412       .  A
C1142      H1149   1.084       .  S
C1143      C1144   1.406       .  A
C1143      H1150   1.083       .  S
C1144      C1145   1.406       .  A
C1144      H1151   1.079       .  S
C1145      C1146   1.409       .  A
C1146      H1152   1.084       .  S
C1153      C1154   1.404       .  A
C1153      C1158   1.409       .  A
C1154      C1155   1.399       .  A
C1154      H1163   1.083       .  S
C1155      C1156   1.403       .  A
C1155      H1164   1.084       .  S
C1156      C1162   1.405       .  A
C1156      C1157   1.412       .  A
C1157      C1159   1.405       .  A
C1157      C1158   1.410       .  A
C1158      H1165   1.084       .  S
C1159      C1160   1.403       .  A
C1159      H1166   1.084       .  S
C1160      C1161   1.405       .  A
C1160      H1167   1.077       .  S
C1161      C1162   1.410       .  A
C1162      H1168   1.084       .  S
C1169      C1170   1.407       .  A
C1169      C1174   1.408       .  A
C1170      C1171   1.400       .  A
C1170      H1179   1.083       .  S
C1171      C1172   1.403       .  A
C1171      H1180   1.084       .  S
C1172      C1178   1.407       .  A
C1172      C1173   1.413       .  A
C1173      C1175   1.401       .  A
C1173      C1174   1.404       .  A
C1174      H1181   1.084       .  S
C1175      C1176   1.397       .  A
C1175      H1182   1.084       .  S
C1176      C1177   1.407       .  A
C1176      H1183   1.083       .  S
C1177      C1178   1.409       .  A
C1178      H1184   1.084       .  S
C1185      C1186   1.407       .  A
C1185      C1190   1.408       .  A
C1186      C1187   1.396       .  A
C1186      H1195   1.083       .  S
C1187      C1188   1.401       .  A
C1187      H1196   1.084       .  S
C1188      C1194   1.404       .  A
C1188      C1189   1.413       .  A
C1189      C1191   1.402       .  A
C1189      C1190   1.406       .  A
C1190      H1197   1.084       .  S
C1191      C1192   1.399       .  A
C1191      H1198   1.084       .  S
C1192      C1193   1.407       .  A
C1192      H1199   1.083       .  S
C1193      C1194   1.407       .  A
C1194      H1200   1.084       .  S
C1201      C1202   1.407       .  A
C1201      C1206   1.409       .  A
C1202      C1203   1.399       .  A
C1202      H1211   1.083       .  S
C1203      C1204   1.402       .  A
C1203      H1212   1.084       .  S
C1204      C1210   1.407       .  A
C1204      C1205   1.414       .  A
C1205      C1207   1.405       .  A
C1205      C1206   1.409       .  A
C1206      H1213   1.084       .  S
C1207      C1208   1.401       .  A
C1207      H1214   1.083       .  S
C1208      C1209   1.402       .  A
C1208      H1215   1.082       .  S
C1209      C1210   1.406       .  A
C1210      H1216   1.085       .  S
C1217      C1218   1.408       .  A
C1217      C1222   1.405       .  A
C1218      C1219   1.400       .  A
C1218      H1227   1.083       .  S
C1219      C1220   1.403       .  A
C1219      H1228   1.084       .  S
C1220      C1226   1.408       .  A
C1220      C1221   1.414       .  A
C1221      C1223   1.399       .  A
C1221      C1222   1.403       .  A
C1222      H1229   1.084       .  S
C1223      C1224   1.395       .  A
C1223      H1230   1.084       .  S
C1224      C1225   1.407       .  A
C1224      H1231   1.083       .  S
C1225      C1226   1.409       .  A
C1226      H1232   1.084       .  S
C1233      C1234   1.406       .  A
C1233      C1238   1.407       .  A
C1234      C1235   1.395       .  A
C1234      H1243   1.083       .  S
C1235      C1236   1.400       .  A
C1235      H1244   1.084       .  S
C1236      C1242   1.402       .  A
C1236      C1237   1.413       .  A
C1237      C1239   1.402       .  A
C1237      C1238   1.405       .  A
C1238      H1245   1.084       .  S
C1239      C1240   1.398       .  A
C1239      H1246   1.084       .  S
C1240      C1241   1.407       .  A
C1240      H1247   1.083       .  S
C1241      C1242   1.406       .  A
C1242      H1248   1.084       .  S
C1249      C1250   1.401       .  A
C1249      C1254   1.406       .  A
C1250      C1251   1.399       .  A
C1250      H1259   1.083       .  S
C1251      C1252   1.404       .  A
C1251      H1260   1.084       .  S
C1252      C1258   1.403       .  A
C1252      C1253   1.413       .  A
C1253      C1255   1.404       .  A
C1253      C1254   1.405       .  A
C1254      H1261   1.085       .  S
C1255      C1256   1.400       .  A
C1255      H1262   1.083       .  S
C1256      C1257   1.404       .  A
C1256      H1263   1.083       .  S
C1257      C1258   1.407       .  A
C1258      H1264   1.084       .  S
C1265      C1266   1.405       .  A
C1265      C1270   1.411       .  A
C1266      C1267   1.399       .  A
C1266      H1275   1.083       .  S
C1267      C1268   1.403       .  A
C1267      H1276   1.084       .  S
C1268      C1274   1.406       .  A
C1268      C1269   1.413       .  A
C1269      C1271   1.406       .  A
C1269      C1270   1.409       .  A
C1270      H1277   1.084       .  S
C1271      C1272   1.402       .  A
C1271      H1278   1.083       .  S
C1272      C1273   1.404       .  A
C1272      H1279   1.082       .  S
C1273      C1274   1.407       .  A
C1274      H1280   1.084       .  S
C1281      C1282   1.404       .  A
C1281      C1286   1.410       .  A
C1282      C1283   1.395       .  A
C1282      H1291   1.083       .  S
C1283      C1284   1.401       .  A
C1283      H1292   1.084       .  S
C1284      C1290   1.400       .  A
C1284      C1285   1.412       .  A
C1285      C1287   1.406       .  A
C1285      C1286   1.407       .  A
C1286      H1293   1.084       .  S
C1287      C1288   1.403       .  A
C1287      H1294   1.083       .  S
C1288      C1289   1.404       .  A
C1288      H1295   1.082       .  S
C1289      C1290   1.406       .  A
C1290      H1296   1.085       .  S
C1297      C1298   1.407       .  A
C1297      C1302   1.407       .  A
C1298      C1299   1.396       .  A
C1298      H1307   1.083       .  S
C1299      C1300   1.400       .  A
C1299      H1308   1.084       .  S
C1300      C1306   1.403       .  A
C1300      C1301   1.414       .  A
C1301      C1303   1.401       .  A
C1301      C1302   1.405       .  A
C1302      H1309   1.084       .  S
C1303      C1304   1.398       .  A
C1303      H1310   1.084       .  S
C1304      C1305   1.407       .  A
C1304      H1311   1.083       .  S
C1305      C1306   1.406       .  A
C1306      H1312   1.084       .  S
C1313      C1314   1.406       .  A
C1313      C1318   1.406       .  A
C1314      C1315   1.396       .  A
C1314      H1323   1.083       .  S
C1315      C1316   1.400       .  A
C1315      H1324   1.084       .  S
C1316      C1322   1.403       .  A
C1316      C1317   1.414       .  A
C1317      C1319   1.401       .  A
C1317      C1318   1.404       .  A
C1318      H1325   1.084       .  S
C1319      C1320   1.397       .  A
C1319      H1326   1.084       .  S
C1320      C1321   1.406       .  A
C1320      H1327   1.083       .  S
C1321      C1322   1.405       .  A
C1322      H1328   1.084       .  S
C1329      C1330   1.403       .  A
C1329      C1334   1.408       .  A
C1330      C1331   1.397       .  A
C1330      H1339   1.083       .  S
C1331      C1332   1.402       .  A
C1331      H1340   1.084       .  S
C1332      C1338   1.402       .  A
C1332      C1333   1.413       .  A
C1333      C1335   1.406       .  A
C1333      C1334   1.407       .  A
C1334      H1341   1.084       .  S
C1335      C1336   1.402       .  A
C1335      H1342   1.083       .  S
C1336      C1337   1.403       .  A
C1336      H1343   1.083       .  S
C1337      C1338   1.405       .  A
C1338      H1344   1.084       .  S
C1345      C1346   1.407       .  A
C1345      C1350   1.405       .  A
C1346      C1347   1.397       .  A
C1346      H1355   1.083       .  S
C1347      C1348   1.401       .  A
C1347      H1356   1.084       .  S
C1348      C1354   1.407       .  A
C1348      C1349   1.414       .  A
C1349      C1351   1.400       .  A
C1349      C1350   1.404       .  A
C1350      H1357   1.084       .  S
C1351      C1352   1.396       .  A
C1351      H1358   1.084       .  S
C1352      C1353   1.408       .  A
C1352      H1359   1.083       .  S
C1353      C1354   1.407       .  A
C1354      H1360   1.084       .  S
C1361      C1362   1.406       .  A
C1361      C1366   1.409       .  A
C1362      C1363   1.395       .  A
C1362      H1371   1.083       .  S
C1363      C1364   1.401       .  A
C1363      H1372   1.084       .  S
C1364      C1370   1.401       .  A
C1364      C1365   1.412       .  A
C1365      C1367   1.403       .  A
C1365      C1366   1.405       .  A
C1366      H1373   1.084       .  S
C1367      C1368   1.400       .  A
C1367      H1374   1.084       .  S
C1368      C1369   1.406       .  A
C1368      H1375   1.083       .  S
C1369      C1370   1.407       .  A
C1370      H1376   1.084       .  S
C1377      C1378   1.405       .  A
C1377      C1382   1.405       .  A
C1378      C1379   1.398       .  A
C1378      H1387   1.083       .  S
C1379      C1380   1.402       .  A
C1379      H1388   1.083       .  S
C1380      C1386   1.405       .  A
C1380      C1381   1.414       .  A
C1381      C1383   1.404       .  A
C1381      C1382   1.404       .  A
C1382      H1389   1.079       .  S
C1383      C1384   1.398       .  A
C1383      H1390   1.083       .  S
C1384      C1385   1.400       .  A
C1384      H1391   1.083       .  S
C1385      C1386   1.402       .  A
C1386      H1392   1.084       .  S
C1393      C1394   1.405       .  A
C1393      C1398   1.406       .  A
C1394      C1395   1.400       .  A
C1394      H1403   1.081       .  S
C1395      C1396   1.404       .  A
C1395      H1404   1.083       .  S
C1396      C1402   1.407       .  A
C1396      C1397   1.414       .  A
C1397      C1399   1.402       .  A
C1397      C1398   1.404       .  A
C1398      H1405   1.084       .  S
C1399      C1400   1.397       .  A
C1399      H1406   1.084       .  S
C1400      C1401   1.402       .  A
C1400      H1407   1.083       .  S
C1401      C1402   1.406       .  A
C1402      H1408   1.084       .  S
C1409      C1410   1.404       .  A
C1409      C1414   1.408       .  A
C1410      C1411   1.404       .  A
C1410      H1419   1.082       .  S
C1411      C1412   1.407       .  A
C1411      H1420   1.083       .  S
C1412      C1418   1.409       .  A
C1412      C1413   1.412       .  A
C1413      C1415   1.403       .  A
C1413      C1414   1.402       .  A
C1414      H1421   1.084       .  S
C1415      C1416   1.396       .  A
C1415      H1422   1.084       .  S
C1416      C1417   1.403       .  A
C1416      H1423   1.083       .  S
C1417      C1418   1.410       .  A
C1418      H1424   1.084       .  S
C1425      C1426   1.405       .  A
C1425      C1430   1.401       .  A
C1426      C1427   1.402       .  A
C1426      H1435   1.083       .  S
C1427      C1428   1.404       .  A
C1427      H1436   1.084       .  S
C1428      C1434   1.409       .  A
C1428      C1429   1.414       .  A
C1429      C1431   1.398       .  A
C1429      C1430   1.402       .  A
C1430      H1437   1.083       .  S
C1431      C1432   1.393       .  A
C1431      H1438   1.084       .  S
C1432      C1433   1.406       .  A
C1432      H1439   1.083       .  S
C1433      C1434   1.408       .  A
C1434      H1440   1.081       .  S
C1441      C1442   1.402       .  A
C1441      C1446   1.407       .  A
C1442      C1443   1.396       .  A
C1442      H1451   1.077       .  S
C1443      C1444   1.401       .  A
C1443      H1452   1.084       .  S
C1444      C1450   1.403       .  A
C1444      C1445   1.414       .  A
C1445      C1447   1.405       .  A
C1445      C1446   1.408       .  A
C1446      H1453   1.084       .  S
C1447      C1448   1.402       .  A
C1447      H1454   1.083       .  S
C1448      C1449   1.402       .  A
C1448      H1455   1.083       .  S
C1449      C1450   1.402       .  A
C1450      H1456   1.084       .  S
C1457      C1458   1.404       .  A
C1457      C1462   1.406       .  A
C1458      C1459   1.402       .  A
C1458      H1467   1.083       .  S
C1459      C1460   1.406       .  A
C1459      H1468   1.083       .  S
C1460      C1466   1.408       .  A
C1460      C1461   1.413       .  A
C1461      C1463   1.403       .  A
C1461      C1462   1.403       .  A
C1462      H1469   1.084       .  S
C1463      C1464   1.398       .  A
C1463      H1470   1.084       .  S
C1464      C1465   1.404       .  A
C1464      H1471   1.083       .  S
C1465      C1466   1.409       .  A
C1466      H1472   1.084       .  S
C1473      C1474   1.403       .  A
C1473      C1478   1.408       .  A
C1474      C1475   1.399       .  A
C1474      H1483   1.083       .  S
C1475      C1476   1.403       .  A
C1475      H1484   1.084       .  S
C1476      C1482   1.405       .  A
C1476      C1477   1.414       .  A
C1477      C1479   1.406       .  A
C1477      C1478   1.408       .  A
C1478      H1485   1.084       .  S
C1479      C1480   1.402       .  A
C1479      H1486   1.083       .  S
C1480      C1481   1.402       .  A
C1480      H1487   1.083       .  S
C1481      C1482   1.405       .  A
C1482      H1488   1.084       .  S
C1489      C1490   1.400       .  A
C1489      C1494   1.403       .  A
C1490      C1491   1.398       .  A
C1490      H1499   1.083       .  S
C1491      C1492   1.404       .  A
C1491      H1500   1.084       .  S
C1492      C1498   1.402       .  A
C1492      C1493   1.414       .  A
C1493      C1495   1.404       .  A
C1493      C1494   1.403       .  A
C1494      H1501   1.085       .  S
C1495      C1496   1.399       .  A
C1495      H1502   1.084       .  S
C1496      C1497   1.402       .  A
C1496      H1503   1.081       .  S
C1497      C1498   1.406       .  A
C1498      H1504   1.084       .  S
C1505      C1506   1.405       .  A
C1505      C1510   1.408       .  A
C1506      C1507   1.397       .  A
C1506      H1515   1.083       .  S
C1507      C1508   1.402       .  A
C1507      H1516   1.084       .  S
C1508      C1514   1.403       .  A
C1508      C1509   1.413       .  A
C1509      C1511   1.403       .  A
C1509      C1510   1.405       .  A
C1510      H1517   1.084       .  S
C1511      C1512   1.399       .  A
C1511      H1518   1.084       .  S
C1512      C1513   1.406       .  A
C1512      H1519   1.083       .  S
C1513      C1514   1.408       .  A
C1514      H1520   1.084       .  S
C1521      C1522   1.407       .  A
C1521      C1526   1.408       .  A
C1522      C1523   1.394       .  A
C1522      H1531   1.083       .  S
C1523      C1524   1.399       .  A
C1523      H1532   1.084       .  S
C1524      C1530   1.401       .  A
C1524      C1525   1.414       .  A
C1525      C1527   1.402       .  A
C1525      C1526   1.406       .  A
C1526      H1533   1.084       .  S
C1527      C1528   1.399       .  A
C1527      H1534   1.084       .  S
C1528      C1529   1.407       .  A
C1528      H1535   1.083       .  S
C1529      C1530   1.405       .  A
C1530      H1536   1.084       .  S
C1537      C1538   1.406       .  A
C1537      C1542   1.405       .  A
C1538      C1539   1.397       .  A
C1538      H1547   1.083       .  S
C1539      C1540   1.402       .  A
C1539      H1548   1.084       .  S
C1540      C1546   1.402       .  A
C1540      C1541   1.413       .  A
C1541      C1543   1.400       .  A
C1541      C1542   1.399       .  A
C1542      H1549   1.084       .  S
C1543      C1544   1.394       .  A
C1543      H1550   1.084       .  S
C1544      C1545   1.406       .  A
C1544      H1551   1.083       .  S
C1545      C1546   1.406       .  A
C1546      H1552   1.084       .  S
C1553      C1554   1.407       .  A
C1553      C1558   1.405       .  A
C1554      C1555   1.402       .  A
C1554      H1563   1.083       .  S
C1555      C1556   1.404       .  A
C1555      H1564   1.083       .  S
C1556      C1562   1.409       .  A
C1556      C1557   1.414       .  A
C1557      C1559   1.398       .  A
C1557      C1558   1.401       .  A
C1558      H1565   1.084       .  S
C1559      C1560   1.392       .  A
C1559      H1566   1.084       .  S
C1560      C1561   1.407       .  A
C1560      H1567   1.083       .  S
C1561      C1562   1.409       .  A
C1562      H1568   1.084       .  S
C1569      C1570   1.401       .  A
C1569      C1574   1.406       .  A
C1570      C1571   1.401       .  A
C1570      H1579   1.083       .  S
C1571      C1572   1.405       .  A
C1571      H1580   1.083       .  S
C1572      C1578   1.407       .  A
C1572      C1573   1.413       .  A
C1573      C1575   1.404       .  A
C1573      C1574   1.408       .  A
C1574      H1581   1.085       .  S
C1575      C1576   1.401       .  A
C1575      H1582   1.083       .  S
C1576      C1577   1.405       .  A
C1576      H1583   1.082       .  S
C1577      C1578   1.410       .  A
C1578      H1584   1.084       .  S
C1585      C1586   1.401       .  A
C1585      C1590   1.403       .  A
C1586      C1587   1.396       .  A
C1586      H1595   1.083       .  S
C1587      C1588   1.402       .  A
C1587      H1596   1.084       .  S
C1588      C1594   1.402       .  A
C1588      C1589   1.414       .  A
C1589      C1591   1.403       .  A
C1589      C1590   1.405       .  A
C1590      H1597   1.084       .  S
C1591      C1592   1.399       .  A
C1591      H1598   1.083       .  S
C1592      C1593   1.405       .  A
C1592      H1599   1.083       .  S
C1593      C1594   1.403       .  A
C1594      H1600   1.080       .  S
C1601      C1602   1.403       .  A
C1601      C1606   1.407       .  A
C1602      C1603   1.401       .  A
C1602      H1611   1.082       .  S
C1603      C1604   1.405       .  A
C1603      H1612   1.083       .  S
C1604      C1610   1.408       .  A
C1604      C1605   1.414       .  A
C1605      C1607   1.404       .  A
C1605      C1606   1.406       .  A
C1606      H1613   1.084       .  S
C1607      C1608   1.400       .  A
C1607      H1614   1.083       .  S
C1608      C1609   1.402       .  A
C1608      H1615   1.083       .  S
C1609      C1610   1.407       .  A
C1610      H1616   1.084       .  S
C1617      C1618   1.403       .  A
C1617      C1622   1.407       .  A
C1618      C1619   1.397       .  A
C1618      H1627   1.083       .  S
C1619      C1620   1.403   1_554  A
C1619      H1628   1.084       .  S
C1620      C1626   1.406       .  A
C1620      C1621   1.413       .  A
C1621      C1623   1.404       .  A
C1621      C1622   1.411   1_556  A
C1622      H1629   1.084       .  S
C1623      C1624   1.403       .  A
C1623      H1630   1.083       .  S
C1624      C1625   1.407       .  A
C1624      H1631   1.076       .  S
C1625      C1626   1.411       .  A
C1626      H1632   1.084       .  S
C1633      C1634   1.403       .  A
C1633      C1638   1.406       .  A
C1634      C1635   1.404       .  A
C1634      H1643   1.083       .  S
C1635      C1636   1.407       .  A
C1635      H1644   1.083       .  S
C1636      C1642   1.411       .  A
C1636      C1637   1.414       .  A
C1637      C1639   1.402       .  A
C1637      C1638   1.404       .  A
C1638      H1645   1.085       .  S
C1639      C1640   1.397       .  A
C1639      H1646   1.084       .  S
C1640      C1641   1.404       .  A
C1640      H1647   1.083       .  S
C1641      C1642   1.409       .  A
C1642      H1648   1.084       .  S
C1649      C1650   1.403       .  A
C1649      C1654   1.407       .  A
C1650      C1651   1.398       .  A
C1650      H1659   1.082       .  S
C1651      C1652   1.402       .  A
C1651      H1660   1.084       .  S
C1652      C1658   1.406   1_556  A
C1652      C1653   1.413       .  A
C1653      C1655   1.403   1_556  A
C1653      C1654   1.410       .  A
C1654      H1661   1.084       .  S
C1655      C1656   1.402       .  A
C1655      H1662   1.083       .  S
C1656      C1657   1.406       .  A
C1656      H1663   1.077       .  S
C1657      C1658   1.410       .  A
C1658      H1664   1.084       .  S
C1665      C1666   1.403       .  A
C1665      C1670   1.408       .  A
C1666      C1667   1.397       .  A
C1666      H1675   1.078       .  S
C1667      C1668   1.401       .  A
C1667      H1676   1.084       .  S
C1668      C1674   1.406       .  A
C1668      C1669   1.415       .  A
C1669      C1671   1.405       .  A
C1669      C1670   1.409       .  A
C1670      H1677   1.084       .  S
C1671      C1672   1.401       .  A
C1671      H1678   1.083       .  S
C1672      C1673   1.403       .  A
C1672      H1679   1.083       .  S
C1673      C1674   1.402       .  A
C1674      H1680   1.084       .  S
C1681      C1682   1.406       .  A
C1681      C1686   1.404       .  A
C1682      C1683   1.401       .  A
C1682      H1691   1.083       .  S
C1683      C1684   1.403       .  A
C1683      H1692   1.083       .  S
C1684      C1690   1.413       .  A
C1684      C1685   1.416       .  A
C1685      C1687   1.400       .  A
C1685      C1686   1.410       .  A
C1686      H1693   1.084       .  S
C1687      C1688   1.398       .  A
C1687      H1694   1.084       .  S
C1688      C1689   1.410       .  A
C1688      H1695   1.083       .  S
C1689      C1690   1.409       .  A
C1690      H1696   1.084       .  S
C1697      C1698   1.403       .  A
C1697      C1702   1.405       .  A
C1698      C1699   1.402       .  A
C1698      H1707   1.082       .  S
C1699      C1700   1.405       .  A
C1699      H1708   1.083       .  S
C1700      C1706   1.408       .  A
C1700      C1701   1.413       .  A
C1701      C1703   1.402       .  A
C1701      C1702   1.404       .  A
C1702      H1709   1.085       .  S
C1703      C1704   1.397       .  A
C1703      H1710   1.084       .  S
C1704      C1705   1.405       .  A
C1704      H1711   1.083       .  S
C1705      C1706   1.410       .  A
C1706      H1712   1.084       .  S
C1713      C1714   1.403       .  A
C1713      C1718   1.403       .  A
C1714      C1715   1.397       .  A
C1714      H1723   1.083       .  S
C1715      C1716   1.402       .  A
C1715      H1724   1.083       .  S
C1716      C1722   1.403       .  A
C1716      C1717   1.415       .  A
C1717      C1719   1.404       .  A
C1717      C1718   1.405       .  A
C1718      H1725   1.084       .  S
C1719      C1720   1.399       .  A
C1719      H1726   1.083       .  S
C1720      C1721   1.401       .  A
C1720      H1727   1.082       .  S
C1721      C1722   1.402       .  A
C1722      H1728   1.084       .  S
C1729      C1730   1.403       .  A
C1729      C1734   1.410       .  A
C1730      C1731   1.397       .  A
C1730      H1739   1.083       .  S
C1731      C1732   1.402       .  A
C1731      H1740   1.084       .  S
C1732      C1738   1.403       .  A
C1732      C1733   1.413       .  A
C1733      C1735   1.406       .  A
C1733      C1734   1.410       .  A
C1734      H1741   1.084       .  S
C1735      C1736   1.403       .  A
C1735      H1742   1.083       .  S
C1736      C1737   1.405       .  A
C1736      H1743   1.083       .  S
C1737      C1738   1.406       .  A
C1738      H1744   1.084       .  S
C1745      C1746   1.407       .  A
C1745      C1750   1.405       .  A
C1746      C1747   1.400   1_655  A
C1746      H1755   1.083       .  S
C1747      C1748   1.402       .  A
C1747      H1756   1.084       .  S
C1748      C1754   1.411       .  A
C1748      C1749   1.415       .  A
C1749      C1751   1.400       .  A
C1749      C1750   1.408   1_455  A
C1750      H1757   1.083       .  S
C1751      C1752   1.397       .  A
C1751      H1758   1.084   1_455  S
C1752      C1753   1.406       .  A
C1752      H1759   1.083       .  S
C1753      C1754   1.407       .  A
C1754      H1760   1.083       .  S
C1761      C1762   1.404       .  A
C1761      C1766   1.407       .  A
C1762      C1763   1.391   1_655  A
C1762      H1771   1.084       .  S
C1763      C1764   1.398       .  A
C1763      H1772   1.084       .  S
C1764      C1770   1.400       .  A
C1764      C1765   1.415       .  A
C1765      C1767   1.405       .  A
C1765      C1766   1.410   1_455  A
C1766      H1773   1.084       .  S
C1767      C1768   1.403       .  A
C1767      H1774   1.084       .  S
C1768      C1769   1.406       .  A
C1768      H1775   1.082       .  S
C1769      C1770   1.402       .  A
C1770      H1776   1.085       .  S
C1777      C1778   1.404       .  A
C1777      C1782   1.407       .  A
C1778      C1779   1.400       .  A
C1778      H1787   1.082       .  S
C1779      C1780   1.403       .  A
C1779      H1788   1.083       .  S
C1780      C1786   1.406       .  A
C1780      C1781   1.414       .  A
C1781      C1783   1.405       .  A
C1781      C1782   1.407       .  A
C1782      H1789   1.084       .  S
C1783      C1784   1.400       .  A
C1783      H1790   1.083       .  S
C1784      C1785   1.402       .  A
C1784      H1791   1.083       .  S
C1785      C1786   1.405       .  A
C1786      H1792   1.084       .  S
C1793      C1794   1.402       .  A
C1793      C1798   1.403       .  A
C1794      C1795   1.396       .  A
C1794      H1803   1.083       .  S
C1795      C1796   1.402       .  A
C1795      H1804   1.084       .  S
C1796      C1802   1.404       .  A
C1796      C1797   1.415       .  A
C1797      C1799   1.403       .  A
C1797      C1798   1.407       .  A
C1798      H1805   1.083       .  S
C1799      C1800   1.400       .  A
C1799      H1806   1.083       .  S
C1800      C1801   1.405       .  A
C1800      H1807   1.083       .  S
C1801      C1802   1.404       .  A
C1802      H1808   1.080       .  S
C1809      C1810   1.403       .  A
C1809      C1814   1.408       .  A
C1810      C1811   1.397       .  A
C1810      H1819   1.083       .  S
C1811      C1812   1.402       .  A
C1811      H1820   1.084       .  S
C1812      C1818   1.404       .  A
C1812      C1813   1.413       .  A
C1813      C1815   1.406       .  A
C1813      C1814   1.411       .  A
C1814      H1821   1.084       .  S
C1815      C1816   1.404       .  A
C1815      H1822   1.083       .  S
C1816      C1817   1.405       .  A
C1816      H1823   1.081       .  S
C1817      C1818   1.407       .  A
C1818      H1824   1.084       .  S
C1825      C1826   1.404       .  A
C1825      C1830   1.409       .  A
C1826      C1827   1.404       .  A
C1826      H1835   1.083       .  S
C1827      C1828   1.406       .  A
C1827      H1836   1.083       .  S
C1828      C1834   1.410       .  A
C1828      C1829   1.413       .  A
C1829      C1831   1.405       .  A
C1829      C1830   1.407       .  A
C1830      H1837   1.084       .  S
C1831      C1832   1.400       .  A
C1831      H1838   1.084       .  S
C1832      C1833   1.403       .  A
C1832      H1839   1.083       .  S
C1833      C1834   1.410       .  A
C1834      H1840   1.084       .  S
C1841      C1842   1.406       .  A
C1841      C1846   1.406       .  A
C1842      C1843   1.403       .  A
C1842      H1851   1.081       .  S
C1843      C1844   1.405       .  A
C1843      H1852   1.083       .  S
C1844      C1850   1.410       .  A
C1844      C1845   1.414       .  A
C1845      C1847   1.401       .  A
C1845      C1846   1.403       .  A
C1846      H1853   1.085       .  S
C1847      C1848   1.395       .  A
C1847      H1854   1.084       .  S
C1848      C1849   1.402       .  A
C1848      H1855   1.084       .  S
C1849      C1850   1.406       .  A
C1850      H1856   1.084       .  S
C1857      C1858   1.401       .  A
C1857      C1862   1.404       .  A
C1858      C1859   1.396       .  A
C1858      H1867   1.083       .  S
C1859      C1860   1.402       .  A
C1859      H1868   1.084       .  S
C1860      C1866   1.404       .  A
C1860      C1861   1.414       .  A
C1861      C1863   1.403       .  A
C1861      C1862   1.408       .  A
C1862      H1869   1.084       .  S
C1863      C1864   1.401       .  A
C1863      H1870   1.083       .  S
C1864      C1865   1.407       .  A
C1864      H1871   1.082       .  S
C1865      C1866   1.405       .  A
C1866      H1872   1.078       .  S
C1873      C1874   1.405       .  A
C1873      C1878   1.411       .  A
C1874      C1875   1.394       .  A
C1874      H1883   1.083       .  S
C1875      C1876   1.400       .  A
C1875      H1884   1.084       .  S
C1876      C1882   1.400       .  A
C1876      C1877   1.412       .  A
C1877      C1879   1.408       .  A
C1877      C1878   1.412       .  A
C1878      H1885   1.084       .  S
C1879      C1880   1.406       .  A
C1879      H1886   1.083       .  S
C1880      C1881   1.405       .  A
C1880      H1887   1.082       .  S
C1881      C1882   1.406       .  A
C1882      H1888   1.085       .  S
C1889      C1890   1.403       .  A
C1889      C1894   1.411       .  A
C1890      C1891   1.399       .  A
C1890      H1899   1.083       .  S
C1891      C1892   1.404       .  A
C1891      H1900   1.084       .  S
C1892      C1898   1.404       .  A
C1892      C1893   1.412       .  A
C1893      C1895   1.407       .  A
C1893      C1894   1.409       .  A
C1894      H1901   1.084       .  S
C1895      C1896   1.404       .  A
C1895      H1902   1.083       .  S
C1896      C1897   1.404       .  A
C1896      H1903   1.083       .  S
C1897      C1898   1.409       .  A
C1898      H1904   1.084       .  S
C1905      C1906   1.403       .  A
C1905      C1910   1.407       .  A
C1906      C1907   1.400       .  A
C1906      H1915   1.083       .  S
C1907      C1908   1.404       .  A
C1907      H1916   1.083       .  S
C1908      C1914   1.406       .  A
C1908      C1909   1.414       .  A
C1909      C1911   1.405       .  A
C1909      C1910   1.407       .  A
C1910      H1917   1.084       .  S
C1911      C1912   1.401       .  A
C1911      H1918   1.083       .  S
C1912      C1913   1.403       .  A
C1912      H1919   1.082       .  S
C1913      C1914   1.407       .  A
C1914      H1920   1.084       .  S
C1921      C1922   1.405       .  A
C1921      C1926   1.408       .  A
C1922      C1923   1.396       .  A
C1922      H1931   1.083       .  S
C1923      C1924   1.401       .  A
C1923      H1932   1.084       .  S
C1924      C1930   1.402       .  A
C1924      C1925   1.413       .  A
C1925      C1927   1.405       .  A
C1925      C1926   1.407       .  A
C1926      H1933   1.084       .  S
C1927      C1928   1.401       .  A
C1927      H1934   1.083       .  S
C1928      C1929   1.404       .  A
C1928      H1935   1.083       .  S
C1929      C1930   1.405       .  A
C1930      H1936   1.085       .  S
C1937      C1938   1.407       .  A
C1937      C1942   1.406       .  A
C1938      C1939   1.396       .  A
C1938      H1947   1.083       .  S
C1939      C1940   1.400       .  A
C1939      H1948   1.084       .  S
C1940      C1946   1.404       .  A
C1940      C1941   1.415       .  A
C1941      C1943   1.401       .  A
C1941      C1942   1.405       .  A
C1942      H1949   1.084       .  S
C1943      C1944   1.397       .  A
C1943      H1950   1.084       .  S
C1944      C1945   1.408       .  A
C1944      H1951   1.083       .  S
C1945      C1946   1.405       .  A
C1946      H1952   1.084       .  S
C1953      C1954   1.404       .  A
C1953      C1958   1.408       .  A
C1954      C1955   1.399       .  A
C1954      H1963   1.083       .  S
C1955      C1956   1.404       .  A
C1955      H1964   1.084       .  S
C1956      C1962   1.402       .  A
C1956      C1957   1.412       .  A
C1957      C1959   1.402       .  A
C1957      C1958   1.400       .  A
C1958      H1965   1.084       .  S
C1959      C1960   1.397       .  A
C1959      H1966   1.084       .  S
C1960      C1961   1.405       .  A
C1960      H1967   1.083       .  S
C1961      C1962   1.409       .  A
C1962      H1968   1.084       .  S
C1969      C1970   1.403       .  A
C1969      C1974   1.408       .  A
C1970      C1971   1.397       .  A
C1970      H1979   1.083       .  S
C1971      C1972   1.402       .  A
C1971      H1980   1.084       .  S
C1972      C1978   1.404       .  A
C1972      C1973   1.414       .  A
C1973      C1975   1.406       .  A
C1973      C1974   1.410       .  A
C1974      H1981   1.084       .  S
C1975      C1976   1.403       .  A
C1975      H1982   1.083       .  S
C1976      C1977   1.404       .  A
C1976      H1983   1.083       .  S
C1977      C1978   1.406       .  A
C1978      H1984   1.084       .  S
C1985      C1986   1.408       .  A
C1985      C1990   1.407       .  A
C1986      C1987   1.394       .  A
C1986      H1995   1.083       .  S
C1987      C1988   1.399       .  A
C1987      H1996   1.084       .  S
C1988      C1994   1.403       .  A
C1988      C1989   1.415       .  A
C1989      C1991   1.402       .  A
C1989      C1990   1.407       .  A
C1990      H1997   1.084       .  S
C1991      C1992   1.399       .  A
C1991      H1998   1.084       .  S
C1992      C1993   1.408       .  A
C1992      H1999   1.083       .  S
C1993      C1994   1.404       .  A
C1994      H2000   1.084       .  S
C2001      C2002   1.405       .  A
C2001      C2006   1.409       .  A
C2002      C2003   1.397       .  A
C2002      H2011   1.083       .  S
C2003      C2004   1.402       .  A
C2003      H2012   1.084       .  S
C2004      C2010   1.402       .  A
C2004      C2005   1.412       .  A
C2005      C2007   1.403       .  A
C2005      C2006   1.403       .  A
C2006      H2013   1.084       .  S
C2007      C2008   1.398       .  A
C2007      H2014   1.084       .  S
C2008      C2009   1.405       .  A
C2008      H2015   1.083       .  S
C2009      C2010   1.408       .  A
C2010      H2016   1.084       .  S
C2017      C2018   1.404       .  A
C2017      C2022   1.408       .  A
C2018      C2019   1.404       .  A
C2018      H2027   1.081       .  S
C2019      C2020   1.406       .  A
C2019      H2028   1.083       .  S
C2020      C2026   1.412       .  A
C2020      C2021   1.413       .  A
C2021      C2023   1.403       .  A
C2021      C2022   1.407       .  A
C2022      H2029   1.084       .  S
C2023      C2024   1.399       .  A
C2023      H2030   1.084       .  S
C2024      C2025   1.405       .  A
C2024      H2031   1.083       .  S
C2025      C2026   1.411       .  A
C2026      H2032   1.084       .  S
C2033      C2034   1.401       .  A
C2033      C2038   1.402       .  A
C2034      C2035   1.398       .  A
C2034      H2043   1.083       .  S
C2035      C2036   1.403       .  A
C2035      H2044   1.083       .  S
C2036      C2042   1.405       .  A
C2036      C2037   1.415       .  A
C2037      C2039   1.402       .  A
C2037      C2038   1.404       .  A
C2038      H2045   1.084       .  S
C2039      C2040   1.398       .  A
C2039      H2046   1.083       .  S
C2040      C2041   1.401       .  A
C2040      H2047   1.083       .  S
C2041      C2042   1.403       .  A
C2042      H2048   1.084       .  S
C2049      C2050   1.405       .  A
C2049      C2054   1.410       .  A
C2050      C2051   1.396       .  A
C2050      H2059   1.083       .  S
C2051      C2052   1.401       .  A
C2051      H2060   1.084       .  S
C2052      C2058   1.403       .  A
C2052      C2053   1.413       .  A
C2053      C2055   1.407       .  A
C2053      C2054   1.411       .  A
C2054      H2061   1.084       .  S
C2055      C2056   1.404       .  A
C2055      H2062   1.083       .  S
C2056      C2057   1.404       .  A
C2056      H2063   1.082       .  S
C2057      C2058   1.405       .  A
C2058      H2064   1.085       .  S
C2065      C2066   1.408       .  A
C2065      C2070   1.410       .  A
C2066      C2067   1.398       .  A
C2066      H2075   1.083       .  S
C2067      C2068   1.401       .  A
C2067      H2076   1.084       .  S
C2068      C2074   1.409       .  A
C2068      C2069   1.413       .  A
C2069      C2071   1.403       .  A
C2069      C2070   1.412       .  A
C2070      H2077   1.078       .  S
C2071      C2072   1.402       .  A
C2071      H2078   1.083       .  S
C2072      C2073   1.408       .  A
C2072      H2079   1.083       .  S
C2073      C2074   1.407       .  A
C2074      H2080   1.076       .  S
C2081      C2082   1.408       .  A
C2081      C2086   1.409       .  A
C2082      C2083   1.398       .  A
C2082      H2091   1.083       .  S
C2083      C2084   1.401       .  A
C2083      H2092   1.084       .  S
C2084      C2090   1.407       .  A
C2084      C2085   1.412       .  A
C2085      C2087   1.402       .  A
C2085      C2086   1.409       .  A
C2086      H2093   1.076       .  S
C2087      C2088   1.400       .  A
C2087      H2094   1.084       .  S
C2088      C2089   1.409       .  A
C2088      H2095   1.083       .  S
C2089      C2090   1.406       .  A
C2090      H2096   1.076       .  S
C2097      C2098   1.401       .  A
C2097      C2102   1.404       .  A
C2098      C2099   1.398       .  A
C2098      H2107   1.082       .  S
C2099      C2100   1.403       .  A
C2099      H2108   1.083       .  S
C2100      C2106   1.404       .  A
C2100      C2101   1.415       .  A
C2101      C2103   1.403       .  A
C2101      C2102   1.404       .  A
C2102      H2109   1.084       .  S
C2103      C2104   1.398       .  A
C2103      H2110   1.083       .  S
C2104      C2105   1.401       .  A
C2104      H2111   1.083       .  S
C2105      C2106   1.402       .  A
C2106      H2112   1.084       .  S
C2113      C2114   1.405       .  A
C2113      C2118   1.408       .  A
C2114      C2115   1.399       .  A
C2114      H2123   1.083       .  S
C2115      C2116   1.404       .  A
C2115      H2124   1.084       .  S
C2116      C2122   1.403       .  A
C2116      C2117   1.412       .  A
C2117      C2119   1.401       .  A
C2117      C2118   1.400       .  A
C2118      H2125   1.084       .  S
C2119      C2120   1.395       .  A
C2119      H2126   1.084       .  S
C2120      C2121   1.405       .  A
C2120      H2127   1.083       .  S
C2121      C2122   1.408       .  A
C2122      H2128   1.084       .  S
C2129      C2130   1.403       .  A
C2129      C2134   1.410       .  A
C2130      C2131   1.400       .  A
C2130      H2139   1.083       .  S
C2131      C2132   1.405       .  A
C2131      H2140   1.083       .  S
C2132      C2138   1.407       .  A
C2132      C2133   1.413       .  A
C2133      C2135   1.406       .  A
C2133      C2134   1.410       .  A
C2134      H2141   1.084       .  S
C2135      C2136   1.403       .  A
C2135      H2142   1.083       .  S
C2136      C2137   1.404       .  A
C2136      H2143   1.082       .  S
C2137      C2138   1.409       .  A
C2138      H2144   1.084       .  S
C2145      C2146   1.408       .  A
C2145      C2150   1.405       .  A
C2146      C2147   1.398       .  A
C2146      H2155   1.083       .  S
C2147      C2148   1.401       .  A
C2147      H2156   1.084       .  S
C2148      C2154   1.406       .  A
C2148      C2149   1.414       .  A
C2149      C2151   1.400       .  A
C2149      C2150   1.403       .  A
C2150      H2157   1.084       .  S
C2151      C2152   1.395       .  A
C2151      H2158   1.084       .  S
C2152      C2153   1.407       .  A
C2152      H2159   1.083       .  S
C2153      C2154   1.407       .  A
C2154      H2160   1.084       .  S
C2161      C2162   1.404       .  A
C2161      C2166   1.406       .  A
C2162      C2163   1.404       .  A
C2162      H2171   1.083       .  S
C2163      C2164   1.407       .  A
C2163      H2172   1.083       .  S
C2164      C2170   1.412       .  A
C2164      C2165   1.413       .  A
C2165      C2167   1.401       .  A
C2165      C2166   1.405       .  A
C2166      H2173   1.084       .  S
C2167      C2168   1.397       .  A
C2167      H2174   1.084       .  S
C2168      C2169   1.405       .  A
C2168      H2175   1.083       .  S
C2169      C2170   1.411       .  A
C2170      H2176   1.084       .  S
C2177      C2178   1.406       .  A
C2177      C2182   1.409       .  A
C2178      C2179   1.400       .  A
C2178      H2187   1.083       .  S
C2179      C2180   1.404       .  A
C2179      H2188   1.084       .  S
C2180      C2186   1.406       .  A
C2180      C2181   1.412       .  A
C2181      C2183   1.402       .  A
C2181      C2182   1.404       .  A
C2182      H2189   1.084       .  S
C2183      C2184   1.397       .  A
C2183      H2190   1.084       .  S
C2184      C2185   1.406       .  A
C2184      H2191   1.083       .  S
C2185      C2186   1.409       .  A
C2186      H2192   1.084       .  S
C2193      C2194   1.407       .  A
C2193      C2198   1.405       .  A
C2194      C2195   1.404       .  A
C2194      H2203   1.083       .  S
C2195      C2196   1.405       .  A
C2195      H2204   1.083       .  S
C2196      C2202   1.411       .  A
C2196      C2197   1.413       .  A
C2197      C2199   1.398       .  A
C2197      C2198   1.400       .  A
C2198      H2205   1.084       .  S
C2199      C2200   1.391       .  A
C2199      H2206   1.084       .  S
C2200      C2201   1.407       .  A
C2200      H2207   1.083       .  S
C2201      C2202   1.410       .  A
C2202      H2208   1.084       .  S
C2209      C2210   1.404       .  A
C2209      C2214   1.409       .  A
C2210      C2211   1.401       .  A
C2210      H2219   1.083       .  S
C2211      C2212   1.405       .  A
C2211      H2220   1.083       .  S
C2212      C2218   1.408       .  A
C2212      C2213   1.413       .  A
C2213      C2215   1.405       .  A
C2213      C2214   1.407       .  A
C2214      H2221   1.084       .  S
C2215      C2216   1.401       .  A
C2215      H2222   1.084       .  S
C2216      C2217   1.404       .  A
C2216      H2223   1.083       .  S
C2217      C2218   1.408       .  A
C2218      H2224   1.084       .  S
C2225      C2226   1.402       .  A
C2225      C2230   1.402       .  A
C2226      C2227   1.399       .  A
C2226      H2235   1.083       .  S
C2227      C2228   1.403       .  A
C2227      H2236   1.083       .  S
C2228      C2234   1.406       .  A
C2228      C2229   1.416       .  A
C2229      C2231   1.402       .  A
C2229      C2230   1.405       .  A
C2230      H2237   1.082       .  S
C2231      C2232   1.397       .  A
C2231      H2238   1.084       .  S
C2232      C2233   1.402       .  A
C2232      H2239   1.083       .  S
C2233      C2234   1.403       .  A
C2234      H2240   1.082       .  S
C2241      C2242   1.403       .  A
C2241      C2246   1.406       .  A
C2242      C2243   1.401       .  A
C2242      H2251   1.083       .  S
C2243      C2244   1.405       .  A
C2243      H2252   1.083       .  S
C2244      C2250   1.405       .  A
C2244      C2245   1.413       .  A
C2245      C2247   1.404       .  A
C2245      C2246   1.403       .  A
C2246      H2253   1.084       .  S
C2247      C2248   1.399       .  A
C2247      H2254   1.084       .  S
C2248      C2249   1.402       .  A
C2248      H2255   1.083       .  S
C2249      C2250   1.407       .  A
C2250      H2256   1.085       .  S
C2257      C2258   1.404       .  A
C2257      C2262   1.408       .  A
C2258      C2259   1.399       .  A
C2258      H2267   1.078       .  S
C2259      C2260   1.402       .  A
C2259      H2268   1.084       .  S
C2260      C2266   1.407   1_565  A
C2260      C2261   1.413       .  A
C2261      C2263   1.403   1_565  A
C2261      C2262   1.408       .  A
C2262      H2269   1.084       .  S
C2263      C2264   1.400       .  A
C2263      H2270   1.084       .  S
C2264      C2265   1.404       .  A
C2264      H2271   1.080       .  S
C2265      C2266   1.406       .  A
C2266      H2272   1.084       .  S
C2273      C2274   1.404       .  A
C2273      C2278   1.406       .  A
C2274      C2275   1.405       .  A
C2274      H2283   1.081       .  S
C2275      C2276   1.407       .  A
C2275      H2284   1.083       .  S
C2276      C2282   1.413       .  A
C2276      C2277   1.413       .  A
C2277      C2279   1.401       .  A
C2277      C2278   1.404       .  A
C2278      H2285   1.085       .  S
C2279      C2280   1.396       .  A
C2279      H2286   1.084       .  S
C2280      C2281   1.405       .  A
C2280      H2287   1.083       .  S
C2281      C2282   1.411       .  A
C2282      H2288   1.084       .  S
C2289      C2290   1.406       .  A
C2289      C2294   1.405       .  A
C2290      C2291   1.399       .  A
C2290      H2299   1.083       .  S
C2291      C2292   1.402   1_565  A
C2291      H2300   1.084   1_565  S
C2292      C2298   1.408       .  A
C2292      C2293   1.414   1_545  A
C2293      C2295   1.401       .  A
C2293      C2294   1.406       .  A
C2294      H2301   1.078       .  S
C2295      C2296   1.397   1_565  A
C2295      H2302   1.084       .  S
C2296      C2297   1.405       .  A
C2296      H2303   1.083       .  S
C2297      C2298   1.405       .  A
C2298      H2304   1.081       .  S
C2305      C2306   1.402       .  A
C2305      C2310   1.404       .  A
C2306      C2307   1.398       .  A
C2306      H2315   1.082       .  S
C2307      C2308   1.402       .  A
C2307      H2316   1.083       .  S
C2308      C2314   1.405       .  A
C2308      C2309   1.415       .  A
C2309      C2311   1.403       .  A
C2309      C2310   1.407       .  A
C2310      H2317   1.083       .  S
C2311      C2312   1.400       .  A
C2311      H2318   1.083       .  S
C2312      C2313   1.402       .  A
C2312      H2319   1.082       .  S
C2313      C2314   1.403       .  A
C2314      H2320   1.084       .  S
C2321      C2322   1.404       .  A
C2321      C2326   1.406       .  A
C2322      C2323   1.404       .  A
C2322      H2331   1.081       .  S
C2323      C2324   1.406       .  A
C2323      H2332   1.083       .  S
C2324      C2330   1.413       .  A
C2324      C2325   1.413       .  A
C2325      C2327   1.400       .  A
C2325      C2326   1.404       .  A
C2326      H2333   1.085       .  S
C2327      C2328   1.396       .  A
C2327      H2334   1.084       .  S
C2328      C2329   1.406       .  A
C2328      H2335   1.083       .  S
C2329      C2330   1.411       .  A
C2330      H2336   1.084       .  S
C2337      C2338   1.406       .  A
C2337      C2342   1.409       .  A
C2338      C2339   1.403       .  A
C2338      H2347   1.080       .  S
C2339      C2340   1.405       .  A
C2339      H2348   1.083       .  S
C2340      C2346   1.411       .  A
C2340      C2341   1.413       .  A
C2341      C2343   1.402       .  A
C2341      C2342   1.405       .  A
C2342      H2349   1.084       .  S
C2343      C2344   1.398       .  A
C2343      H2350   1.084       .  S
C2344      C2345   1.405       .  A
C2344      H2351   1.083       .  S
C2345      C2346   1.410       .  A
C2346      H2352   1.084       .  S
C2353      C2354   1.402       .  A
C2353      C2358   1.401       .  A
C2354      C2355   1.400       .  A
C2354      H2363   1.083       .  S
C2355      C2356   1.404       .  A
C2355      H2364   1.083       .  S
C2356      C2362   1.406       .  A
C2356      C2357   1.414       .  A
C2357      C2359   1.400       .  A
C2357      C2358   1.403       .  A
C2358      H2365   1.084       .  S
C2359      C2360   1.396       .  A
C2359      H2366   1.084       .  S
C2360      C2361   1.404       .  A
C2360      H2367   1.078       .  S
C2361      C2362   1.406       .  A
C2362      H2368   1.082       .  S
C2369      C2370   1.403       .  A
C2369      C2374   1.403       .  A
C2370      C2371   1.402       .  A
C2370      H2379   1.083       .  S
C2371      C2372   1.405       .  A
C2371      H2380   1.083       .  S
C2372      C2378   1.410       .  A
C2372      C2373   1.414       .  A
C2373      C2375   1.400       .  A
C2373      C2374   1.406       .  A
C2374      H2381   1.085       .  S
C2375      C2376   1.396       .  A
C2375      H2382   1.084       .  S
C2376      C2377   1.408       .  A
C2376      H2383   1.083       .  S
C2377      C2378   1.410       .  A
C2378      H2384   1.084       .  S
C2385      C2386   1.404       .  A
C2385      C2390   1.407       .  A
C2386      C2387   1.398       .  A
C2386      H2395   1.083       .  S
C2387      C2388   1.402       .  A
C2387      H2396   1.084       .  S
C2388      C2394   1.406   1_556  A
C2388      C2389   1.413       .  A
C2389      C2391   1.403   1_556  A
C2389      C2390   1.409       .  A
C2390      H2397   1.084       .  S
C2391      C2392   1.402       .  A
C2391      H2398   1.084       .  S
C2392      C2393   1.406       .  A
C2392      H2399   1.078       .  S
C2393      C2394   1.409       .  A
C2394      H2400   1.084       .  S
C2401      C2402   1.408       .  A
C2401      C2406   1.410       .  A
C2402      C2403   1.396       .  A
C2402      H2411   1.083       .  S
C2403      C2404   1.400       .  A
C2403      H2412   1.084       .  S
C2404      C2410   1.406       .  A
C2404      C2405   1.415       .  A
C2405      C2407   1.405       .  A
C2405      C2406   1.410       .  A
C2406      H2413   1.084       .  S
C2407      C2408   1.401       .  A
C2407      H2414   1.083       .  S
C2408      C2409   1.404       .  A
C2408      H2415   1.083       .  S
C2409      C2410   1.402       .  A
C2410      H2416   1.085       .  S
C2417      C2418   1.407       .  A
C2417      C2422   1.408       .  A
C2418      C2419   1.402       .  A
C2418      H2427   1.078       .  S
C2419      C2420   1.403       .  A
C2419      H2428   1.084       .  S
C2420      C2426   1.410   1_556  A
C2420      C2421   1.413       .  A
C2421      C2423   1.402   1_556  A
C2421      C2422   1.404       .  A
C2422      H2429   1.084       .  S
C2423      C2424   1.396       .  A
C2423      H2430   1.084       .  S
C2424      C2425   1.402       .  A
C2424      H2431   1.083       .  S
C2425      C2426   1.406       .  A
C2426      H2432   1.084       .  S
C2433      C2434   1.408       .  A
C2433      C2438   1.405       .  A
C2434      C2435   1.401       .  A
C2434      H2443   1.082       .  S
C2435      C2436   1.403       .  A
C2435      H2444   1.083       .  S
C2436      C2442   1.408       .  A
C2436      C2437   1.414       .  A
C2437      C2439   1.402       .  A
C2437      C2438   1.404       .  A
C2438      H2445   1.075       .  S
C2439      C2440   1.396       .  A
C2439      H2446   1.084       .  S
C2440      C2441   1.401       .  A
C2440      H2447   1.083       .  S
C2441      C2442   1.405       .  A
C2442      H2448   1.084       .  S
C2449      C2450   1.405       .  A
C2449      C2454   1.406       .  A
C2450      C2451   1.406       .  A
C2450      H2459   1.082       .  S
C2451      C2452   1.408       .  A
C2451      H2460   1.083       .  S
C2452      C2458   1.413       .  A
C2452      C2453   1.413       .  A
C2453      C2455   1.400       .  A
C2453      C2454   1.401       .  A
C2454      H2461   1.085       .  S
C2455      C2456   1.394       .  A
C2455      H2462   1.084       .  S
C2456      C2457   1.405       .  A
C2456      H2463   1.083       .  S
C2457      C2458   1.411       .  A
C2458      H2464   1.084       .  S
C2465      C2466   1.405       .  A
C2465      C2470   1.406       .  A
C2466      C2467   1.405       .  A
C2466      H2475   1.080       .  S
C2467      C2468   1.407       .  A
C2467      H2476   1.083       .  S
C2468      C2474   1.411       .  A
C2468      C2469   1.413       .  A
C2469      C2471   1.401       .  A
C2469      C2470   1.402       .  A
C2470      H2477   1.085       .  S
C2471      C2472   1.395       .  A
C2471      H2478   1.084       .  S
C2472      C2473   1.405       .  A
C2472      H2479   1.083       .  S
C2473      C2474   1.411       .  A
C2474      H2480   1.084       .  S
C2481      C2482   1.402       .  A
C2481      C2486   1.403       .  A
C2482      C2483   1.398       .  A
C2482      H2491   1.083       .  S
C2483      C2484   1.402       .  A
C2483      H2492   1.083       .  S
C2484      C2490   1.405       .  A
C2484      C2485   1.415       .  A
C2485      C2487   1.403       .  A
C2485      C2486   1.405       .  A
C2486      H2493   1.083       .  S
C2487      C2488   1.398       .  A
C2487      H2494   1.084       .  S
C2488      C2489   1.402       .  A
C2488      H2495   1.083       .  S
C2489      C2490   1.401       .  A
C2490      H2496   1.084       .  S
C2497      C2498   1.405       .  A
C2497      C2502   1.413       .  A
C2498      C2499   1.397       .  A
C2498      H2507   1.083       .  S
C2499      C2500   1.401       .  A
C2499      H2508   1.084       .  S
C2500      C2506   1.404       .  A
C2500      C2501   1.412       .  A
C2501      C2503   1.407       .  A
C2501      C2502   1.413       .  A
C2502      H2509   1.084       .  S
C2503      C2504   1.406       .  A
C2503      H2510   1.083       .  S
C2504      C2505   1.405       .  A
C2504      H2511   1.080       .  S
C2505      C2506   1.408       .  A
C2506      H2512   1.085       .  S
C2513      C2514   1.408       .  A
C2513      C2518   1.408       .  A
C2514      C2515   1.399       .  A
C2514      H2523   1.083       .  S
C2515      C2516   1.401       .  A
C2515      H2524   1.084       .  S
C2516      C2522   1.410       .  A
C2516      C2517   1.413       .  A
C2517      C2519   1.402       .  A
C2517      C2518   1.410       .  A
C2518      H2525   1.078       .  S
C2519      C2520   1.399       .  A
C2519      H2526   1.083       .  S
C2520      C2521   1.406       .  A
C2520      H2527   1.083       .  S
C2521      C2522   1.407       .  A
C2522      H2528   1.079       .  S
C2529      C2530   1.405       .  A
C2529      C2534   1.409       .  A
C2530      C2531   1.406       .  A
C2530      H2539   1.082       .  S
C2531      C2532   1.407       .  A
C2531      H2540   1.083       .  S
C2532      C2538   1.413       .  A
C2532      C2533   1.413       .  A
C2533      C2535   1.403       .  A
C2533      C2534   1.406       .  A
C2534      H2541   1.084       .  S
C2535      C2536   1.398       .  A
C2535      H2542   1.084       .  S
C2536      C2537   1.403       .  A
C2536      H2543   1.083       .  S
C2537      C2538   1.411       .  A
C2538      H2544   1.084       .  S
C2545      C2546   1.407       .  A
C2545      C2550   1.406       .  A
C2546      C2547   1.398       .  A
C2546      H2555   1.083       .  S
C2547      C2548   1.401       .  A
C2547      H2556   1.084       .  S
C2548      C2554   1.408       .  A
C2548      C2549   1.414       .  A
C2549      C2551   1.402       .  A
C2549      C2550   1.408       .  A
C2550      H2557   1.079       .  S
C2551      C2552   1.398       .  A
C2551      H2558   1.084       .  S
C2552      C2553   1.405       .  A
C2552      H2559   1.083       .  S
C2553      C2554   1.405       .  A
C2554      H2560   1.082       .  S
C2561      C2562   1.401       .  A
C2561      C2566   1.403       .  A
C2562      C2563   1.398       .  A
C2562      H2571   1.083       .  S
C2563      C2564   1.403       .  A
C2563      H2572   1.083       .  S
C2564      C2570   1.405       .  A
C2564      C2565   1.415       .  A
C2565      C2567   1.403       .  A
C2565      C2566   1.406       .  A
C2566      H2573   1.084       .  S
C2567      C2568   1.398       .  A
C2567      H2574   1.083       .  S
C2568      C2569   1.401       .  A
C2568      H2575   1.083       .  S
C2569      C2570   1.403       .  A
C2570      H2576   1.084       .  S
C2577      C2578   1.403       .  A
C2577      C2582   1.406       .  A
C2578      C2579   1.402       .  A
C2578      H2587   1.083       .  S
C2579      C2580   1.406       .  A
C2579      H2588   1.083       .  S
C2580      C2586   1.407       .  A
C2580      C2581   1.413       .  A
C2581      C2583   1.403       .  A
C2581      C2582   1.403       .  A
C2582      H2589   1.084       .  S
C2583      C2584   1.398       .  A
C2583      H2590   1.084       .  S
C2584      C2585   1.403       .  A
C2584      H2591   1.083       .  S
C2585      C2586   1.407       .  A
C2586      H2592   1.084       .  S
