geometry optimzed in LAMMPS
_audit_creation_date              2020-12-01 
_audit_creation_method            'lammps2cif' 
_symmetry_space_group_name_H-M    'P1' 
_symmetry_Int_Tables_number       1 
_symmetry_cell_setting            triclinic 
loop_ 
_symmetry_equiv_pos_as_xyz 
  x,y,z 
_cell_length_a                    41.2755384 
_cell_length_b                    41.352023720291236 
_cell_length_c                    25.220079198007152 
_cell_angle_alpha                 90.03715859005294 
_cell_angle_beta                  89.75656078348538 
_cell_angle_gamma                 119.69706966944902 
loop_ 
_atom_site_label 
_atom_site_type_symbol 
_atom_site_fract_x 
_atom_site_fract_y 
_atom_site_fract_z 
_atom_site_charge 
N1          N  0.99855961  0.21224737  0.05055569    -0.36400
N2          N  0.49150266  0.27765939  0.06085000    -0.56900
N3          N  0.99869024  0.28829546  0.94716573    -0.36400
N4          N  0.00005104  0.21906454  0.93558313    -0.56900
C5          C  0.49246557  0.21022894  0.10115904     0.27200
C6          C  0.99372006  0.17860891  0.03607619     0.27200
C7          C  0.48975864  0.31464463  0.95963204     0.27200
C8          C  0.99274258  0.28272434  0.89434628     0.27200
C9          C  0.49415372  0.27106740  0.11265515     0.35800
C10         C  0.49270695  0.31086233  0.05852209     0.35800
C11         C  0.00651042  0.19014791  0.93894917     0.35800
C12         C  0.00486719  0.22959735  0.88418438     0.35800
C13         C  0.48506144  0.17586217  0.12034400    -0.21600
C14         C  0.98233509  0.15523309  0.08007645    -0.21600
C15         C  0.48109432  0.32790511  0.91434434    -0.21600
C16         C  0.98166110  0.30692420  0.87433769    -0.21600
C17         C  0.49599162  0.29975868  0.14340896    -0.22700
C18         C  0.49501385  0.32494334  0.10907915    -0.22700
C19         C  0.01492620  0.18185233  0.88929318    -0.22700
C20         C  0.01380088  0.20681118  0.85452952    -0.22700
C21         C  0.49364217  0.23897094  0.13303266    -0.18000
C22         C  0.00166102  0.16915359  0.98533137    -0.18000
C23         C  0.99909240  0.25797702  0.86306517    -0.18000
C24         C  0.49102904  0.32844568  0.01161375    -0.18000
H25         H  0.47886591  0.16597233  0.16086152     0.14900
H26         H  0.97688294  0.12684897  0.08236262     0.14900
H27         H  0.47327984  0.34928516  0.91199810     0.14900
H28         H  0.97537720  0.30976344  0.83355509     0.14900
H29         H  0.49773897  0.30227663  0.18616013     0.13200
H30         H  0.49594079  0.35069280  0.12009525     0.13100
H31         H  0.02048422  0.15965139  0.87895722     0.13200
H32         H  0.01851007  0.20771379  0.81216540     0.13100
H33         H  0.01138685  0.23633075  0.02784478     0.26400
H34         H  0.01142219  0.27749141  0.97110184     0.26400
N35         N  0.50401498  0.21431348  0.44584536    -0.36400
N36         N  0.50889777  0.22313455  0.56047736    -0.56900
N37         N  0.50917698  0.29304887  0.54894739    -0.36400
N38         N  0.50168528  0.28286016  0.43411802    -0.56900
C39         C  0.49774034  0.18019358  0.46060906     0.27200
C40         C  0.49633974  0.21283218  0.39343904     0.27200
C41         C  0.50390364  0.28764082  0.60194694     0.27200
C42         C  0.49917400  0.31849810  0.53529457     0.27200
C43         C  0.51305631  0.19282107  0.55695737     0.35800
C44         C  0.51666071  0.23509400  0.61105599     0.35800
C45         C  0.50528676  0.27671128  0.38242572     0.35800
C46         C  0.50574332  0.31726298  0.43708125     0.35800
C47         C  0.48656446  0.15701638  0.41649508    -0.21600
C48         C  0.48570097  0.17758284  0.37431968    -0.21800
C49         C  0.49109673  0.31039977  0.62238159    -0.21600
C50         C  0.48807993  0.32984830  0.58038673    -0.21600
C51         C  0.52333514  0.18532362  0.60571190    -0.22700
C52         C  0.52573003  0.21221798  0.63999444    -0.22700
C53         C  0.51135323  0.30731474  0.35232744    -0.22700
C54         C  0.51157529  0.33303506  0.38706405    -0.22700
C55         C  0.50477175  0.17021920  0.51148726    -0.18000
C56         C  0.50056084  0.24289627  0.36165809    -0.18000
C57         C  0.50176645  0.33346505  0.48394080    -0.18000
C58         C  0.51145715  0.26363589  0.63276359    -0.18000
H59         H  0.48041529  0.12841158  0.41421812     0.14900
H60         H  0.47852984  0.16776754  0.33395904     0.14900
H61         H  0.48464051  0.31282067  0.66333539     0.14900
H62         H  0.47887638  0.35018859  0.58289705     0.14900
H63         H  0.52779874  0.16242158  0.61593126     0.13200
H64         H  0.53232025  0.21408349  0.68178036     0.13100
H65         H  0.51469596  0.31055249  0.30973029     0.13200
H66         H  0.51517296  0.36002387  0.37668650     0.13100
H67         H  0.51688165  0.23827865  0.46857070     0.26400
H68         H  0.52257260  0.28304567  0.52456429     0.26400
O69         O  0.45347211  0.01902899  0.96200867    -0.88100
C70         C  0.03047482  0.06643990  0.08272328     0.87900
Mg71       Mg  0.40953552  0.46210744  0.96721720     1.58100
O72         O  0.06387011  0.04713679  0.96490113    -0.87800
O73         O  0.99959695  0.05848366  0.91343447    -0.75200
C74         C  0.49114230  0.36401084  0.01591056     0.93000
O75         O  0.44431850  0.00255976  0.08737777    -0.75000
O76         O  0.46067531  0.36366042  0.02470312    -0.82500
Mg77       Mg  0.46087350  0.05221163  0.03116952     1.58000
C78         C  0.12880577  0.99454507  0.98150633     0.92900
O79         O  0.47404415  0.10418106  0.98350172    -0.80700
H80         H  0.07436821  0.05434690  0.88708396    -0.06100
C81         C  0.03542664  0.46958659  0.07397731     0.87800
O82         O  0.44168507  0.44340417  0.91153806    -0.75200
O83         O  0.01672936  0.06396194  0.03851046    -0.88000
O84         O  0.12894844  0.02455107  0.99327080    -0.80800
C85         C  0.13398218  0.13007911  0.02100670     0.93000
C86         C  0.50400655  0.13488990  0.97680653     0.92900
Mg87       Mg  0.03953710  0.45111438  0.95904620     1.58000
O88         O  0.02474437  0.39638474  0.00154843    -0.80700
O89         O  0.05731807  0.50201790  0.90457977    -0.75000
O90         O  0.10304800  0.12940999  0.01514757    -0.80800
O91         O  0.40080102  0.03861937  0.02626801    -0.82500
O92         O  0.39320499  0.37204310  0.98946162    -0.80900
C93         C  0.06573666  0.03553086  0.92055969     0.87300
O94         O  0.48081517  0.43648763  0.96174544    -0.88000
O95         O  0.04611727  0.48332359  0.02958119    -0.88100
O96         O  0.49867838  0.44161471  0.08738599    -0.75200
Mg97       Mg  0.04976741  0.09072520  0.96918679     1.58000
O98         O  0.13578545  0.10052193  0.02747740    -0.82500
H99         H  0.44513174  0.02185691  0.88449954    -0.06300
O100        O  0.43529675  0.45508702  0.03704132    -0.87800
H101        H  0.42309020  0.44735781  0.11445355    -0.06100
H102        H  0.47658706  0.42569759  0.88398585    -0.06300
C103        C  0.43240969  0.46636828  0.08117061     0.87300
C104        C  0.46436800  0.03233497  0.91735523     0.87900
C105        C  0.46682207  0.43454640  0.91786136     0.87900
H106        H  0.05482391  0.47960394  0.10666107    -0.06200
O107        O  0.05611766  0.05841117  0.08985369    -0.75300
Mg108      Mg  0.44800124  0.41057653  0.03246801     1.58000
H109        H  0.02011466  0.07509315  0.11613864    -0.06300
C110        C  0.37130648  0.00732020  0.02181515     0.92900
O111        O  0.36239546  0.40255861  0.97414004    -0.82500
C112        C  0.36304164  0.37250738  0.98131811     0.93000
O113        O  0.03538445  0.13671666  0.97653472    -0.82500
Mg114      Mg  0.08935747  0.04028664  0.03538305     1.58200
O115        O  0.37111884  0.47750084  0.01328848    -0.80800
O116        O  0.09984922  0.46539388  0.96612383    -0.82500
O117        O  0.04885343  0.48400428  0.46288464    -0.88100
C118        C  0.46811472  0.43258316  0.58348358     0.87900
Mg119      Mg  0.09002328  0.04055462  0.46886055     1.58100
O120        O  0.43690993  0.45232181  0.46431546    -0.87800
O121        O  0.50335645  0.44420684  0.41428256    -0.75200
C122        C  0.50505449  0.13473395  0.51563055     0.93000
O123        O  0.05906529  0.50170550  0.58801785    -0.75000
O124        O  0.03255998  0.13432161  0.52660508    -0.82500
Mg125      Mg  0.04308530  0.45171870  0.53275430     1.58000
C126        C  0.37024858  0.00442761  0.47916297     0.92900
O127        O  0.03094245  0.39912593  0.48759171    -0.80700
H128        H  0.42656583  0.44503046  0.38657535    -0.06100
C129        C  0.46536187  0.03202314  0.57816960     0.87800
O130        O  0.05725321  0.05830684  0.41373261    -0.75200
O131        O  0.48252737  0.43536909  0.53947414    -0.88000
O132        O  0.37044335  0.46995818  0.48596836    -0.80800
C133        C  0.36629479  0.36788716  0.51860161     0.93000
C134        C  0.49943131  0.36775618  0.48076150     0.92900
Mg135      Mg  0.46004552  0.05000670  0.46410150     1.58000
O136        O  0.47476590  0.10432372  0.50829853    -0.80700
O137        O  0.44265228  0.99917526  0.40947779    -0.75000
O138        O  0.39669496  0.36857662  0.50722127    -0.80800
O139        O  0.10336534  0.46721528  0.52594736    -0.82500
O140        O  0.10208324  0.12910936  0.48975825    -0.80900
C141        C  0.43451021  0.46370368  0.42008755     0.87300
O142        O  0.01682776  0.06300789  0.46434757    -0.88000
O143        O  0.45411740  0.01784621  0.53420175    -0.88100
O144        O  0.99732257  0.05510893  0.58880688    -0.75200
Mg145      Mg  0.45206622  0.40992665  0.46722585     1.58000
O146        O  0.36471153  0.39720427  0.52813228    -0.82500
H147        H  0.05680305  0.48148186  0.38512433    -0.06300
O148        O  0.06361868  0.04659895  0.53918755    -0.87800
H149        H  0.07280173  0.05276490  0.61728809    -0.06100
H150        H  0.02134121  0.07474672  0.38686298    -0.06300
C151        C  0.06480607  0.03440803  0.58339170     0.87300
C152        C  0.03785205  0.47062401  0.41849738     0.87900
C153        C  0.03134329  0.06601467  0.42043676     0.87900
H154        H  0.44647315  0.02209202  0.61169227    -0.06200
O155        O  0.44249802  0.44070458  0.59038962    -0.75300
Mg156      Mg  0.04824100  0.08922375  0.53452412     1.58000
H157        H  0.47822630  0.42399906  0.61710254    -0.06300
C158        C  0.12921129  0.99512874  0.52170607     0.92900
O159        O  0.13543766  0.10088506  0.47603201    -0.82500
C160        C  0.13313511  0.13018890  0.48227131     0.93000
O161        O  0.46798223  0.36528040  0.47236960    -0.82500
Mg162      Mg  0.40958452  0.45744172  0.53408265     1.58200
O163        O  0.12948418  0.02550076  0.51233254    -0.80800
O164        O  0.39955036  0.03580953  0.47295216    -0.82500
N165        N  0.28234229  0.00370204  0.06498611    -0.36400
N166        N  0.21071893  0.99996961  0.05238585    -0.56900
N167        N  0.21433913  0.99082533  0.93731997    -0.36400
N168        N  0.28819627  0.99905200  0.94991131    -0.56900
C169        C  0.27654463  0.01100247  0.11528996     0.27200
C170        C  0.31834282  0.01205397  0.06112251     0.27200
C171        C  0.18375719  0.99482982  0.93973765     0.27200
C172        C  0.22462134  0.99373236  0.88576932     0.27200
C173        C  0.21083027  0.99747925  0.10593650     0.35800
C174        C  0.17631448  0.99329997  0.03867889     0.35800
C175        C  0.31950468  0.99862707  0.96434782     0.35800
C176        C  0.28426789  0.99254388  0.89704910     0.35800
C177        C  0.30927126  0.02395146  0.14396796    -0.21600
C178        C  0.33567526  0.02466836  0.10974166    -0.21600
C179        C  0.17370829  0.99910913  0.88896198    -0.21600
C180        C  0.19943505  0.99837604  0.85490179    -0.21600
C181        C  0.17654071  0.98969597  0.12643221    -0.22700
C182        C  0.15475244  0.98721892  0.08397253    -0.22700
C183        C  0.33585736  0.99253325  0.91998514    -0.22700
C184        C  0.31356829  0.98868477  0.87755557    -0.22700
C185        C  0.24191753  0.00378835  0.13695260    -0.18000
C186        C  0.33504561  0.00589357  0.01609012    -0.18000
C187        C  0.25561997  0.99168810  0.86539470    -0.18000
C188        C  0.16417041  0.99397836  0.98630314    -0.18000
H189        H  0.31358108  0.03157111  0.18546460     0.14900
H190        H  0.36417200  0.03287604  0.11988433     0.14900
H191        H  0.15033305  0.00254148  0.87758136     0.14900
H192        H  0.19962921  0.00118401  0.81221200     0.14900
H193        H  0.16818843  0.98648810  0.16770330     0.13200
H194        H  0.12617875  0.98145636  0.08626063     0.13100
H195        H  0.36155280  0.99155195  0.91797166     0.13200
H196        H  0.31855146  0.98388332  0.83689657     0.13100
H197        H  0.26180734  0.98928213  0.03708782     0.26400
H198        H  0.22565430  0.98355332  0.96850393     0.26400
N199        N  0.28119046  0.00094590  0.43756273    -0.36400
N200        N  0.21000428  0.99815492  0.45063337    -0.56900
N201        N  0.21429514  0.99155902  0.56504086    -0.36400
N202        N  0.28662737  0.99631630  0.55155925    -0.56900
C203        C  0.27604335  0.01007830  0.38808867     0.27200
C204        C  0.31745004  0.01019121  0.44152383     0.27200
C205        C  0.18576365  0.99875903  0.56210801     0.27200
C206        C  0.22617082  0.99734442  0.61579349     0.27200
C207        C  0.20961685  0.99362663  0.39748795     0.35800
C208        C  0.17525142  0.99031610  0.46475710     0.35800
C209        C  0.31718932  0.99429818  0.53701063     0.35800
C210        C  0.28206732  0.98962349  0.60437290     0.35800
C211        C  0.30941643  0.02522501  0.36014346    -0.21600
C212        C  0.33555915  0.02526576  0.39387616    -0.21600
C213        C  0.17893186  0.00862781  0.61166629    -0.21600
C214        C  0.20440650  0.00765456  0.64566173    -0.21600
C215        C  0.17451358  0.98300672  0.37761733    -0.22700
C216        C  0.15272765  0.98098557  0.42021862    -0.22700
C217        C  0.33233530  0.98676187  0.58119904    -0.22700
C218        C  0.31010065  0.98378106  0.62370209    -0.22700
C219        C  0.24136771  0.00213760  0.36630667    -0.18000
C220        C  0.33364322  0.00260598  0.48561077    -0.18000
C221        C  0.25516308  0.99222087  0.63630240    -0.18000
C222        C  0.16446406  0.99452612  0.51649617    -0.18000
H223        H  0.31430477  0.03460966  0.31934185     0.14900
H224        H  0.36441266  0.03469378  0.38396169     0.14900
H225        H  0.15765564  0.01555079  0.62229118     0.14900
H226        H  0.20658101  0.01382342  0.68763349     0.14900
H227        H  0.16574752  0.97803446  0.33661612     0.13200
H228        H  0.12377203  0.97399901  0.41847133     0.13100
H229        H  0.35745397  0.98473859  0.58315220     0.13200
H230        H  0.31467550  0.97891226  0.66444629     0.13100
H231        H  0.26016509  0.98483940  0.46439844     0.26400
H232        H  0.22252667  0.97959932  0.53552692     0.26400
N233        N  0.21779060  0.21929328  0.06367215    -0.36400
N234        N  0.21122222  0.21159624  0.94919948    -0.56900
N235        N  0.27726991  0.28501062  0.93676271    -0.36400
N236        N  0.28543311  0.29109164  0.05156865    -0.56900
C237        C  0.19153191  0.18293127  0.05964813     0.27200
C238        C  0.23121275  0.22487646  0.11362264     0.27200
C239        C  0.27218468  0.27330954  0.88585363     0.27200
C240        C  0.31147408  0.31560716  0.93994151     0.27200
C241        C  0.17792603  0.18228895  0.96345871     0.35800
C242        C  0.20974573  0.21620341  0.89629970     0.35800
C243        C  0.28113318  0.29119312  0.10479282     0.35800
C244        C  0.31252614  0.32570289  0.03785493     0.35800
C245        C  0.18798600  0.16522447  0.10771165    -0.21600
C246        C  0.21312632  0.19167922  0.14176306    -0.21600
C247        C  0.30332282  0.29725224  0.85606400    -0.21600
C248        C  0.32809410  0.32395081  0.89021326    -0.21600
C249        C  0.15545513  0.16794267  0.91906566    -0.22700
C250        C  0.17561116  0.18939174  0.87665089    -0.22700
C251        C  0.30572797  0.32595720  0.12514819    -0.22700
C252        C  0.32571063  0.34777372  0.08284638    -0.22700
C253        C  0.16879116  0.16631582  0.01497527    -0.18000
C254        C  0.25722905  0.25963164  0.13565907    -0.18000
C255        C  0.32742927  0.33704255  0.98601318    -0.18000
C256        C  0.23939166  0.24301279  0.86486011    -0.18000
H257        H  0.16893881  0.13640340  0.11756555     0.14900
H258        H  0.21715274  0.18711507  0.18288789     0.14900
H259        H  0.30764305  0.29588950  0.81394109     0.14900
H260        H  0.35512979  0.34704305  0.87951910     0.14900
H261        H  0.12767095  0.14408150  0.91703316     0.13200
H262        H  0.16630273  0.18549370  0.83589973     0.13100
H263        H  0.30936133  0.33451657  0.16627299     0.13200
H264        H  0.34773575  0.37651441  0.08508444     0.13100
H265        H  0.22270628  0.23999673  0.03628029     0.26400
H266        H  0.25711064  0.27494328  0.96633505     0.26400
N267        N  0.21934394  0.21729546  0.43725152    -0.36400
N268        N  0.28954135  0.28642962  0.44868068    -0.56900
N269        N  0.27895588  0.28249663  0.56334594    -0.36400
N270        N  0.21026509  0.21197005  0.55173301    -0.56900
C271        C  0.23308628  0.22172480  0.38739636     0.27200
C272        C  0.19127044  0.18172084  0.44188785     0.27200
C273        C  0.31446095  0.31085962  0.55977660     0.27200
C274        C  0.27302873  0.27069984  0.61424288     0.27200
C275        C  0.28479627  0.28702796  0.39570552     0.35800
C276        C  0.31624992  0.32113697  0.46231214     0.35800
C277        C  0.17656067  0.18350396  0.53760289     0.35800
C278        C  0.20851491  0.21725318  0.60439634     0.35800
C279        C  0.21338878  0.18858173  0.35978087    -0.21600
C280        C  0.18693852  0.16332375  0.39416277    -0.21600
C281        C  0.33124756  0.31761512  0.60906381    -0.21600
C282        C  0.30508431  0.29222222  0.64351866    -0.21600
C283        C  0.30877153  0.32212186  0.37550332    -0.22700
C284        C  0.32884900  0.34368880  0.41762283    -0.22700
C285        C  0.15344284  0.17048923  0.58193209    -0.22700
C286        C  0.17368017  0.19188266  0.62408055    -0.22700
C287        C  0.26053924  0.25578135  0.36494305    -0.18000
C288        C  0.16776794  0.16660191  0.48672302    -0.18000
C289        C  0.23876899  0.24280281  0.63567502    -0.18000
C290        C  0.33113876  0.33218643  0.51387787    -0.18000
H291        H  0.21718939  0.18337040  0.31878246     0.14900
H292        H  0.16640018  0.13492881  0.38460101     0.14900
H293        H  0.35927392  0.33887772  0.61924233     0.14900
H294        H  0.30909231  0.29022324  0.68552087     0.14900
H295        H  0.31180097  0.33111591  0.33459639     0.13200
H296        H  0.35036618  0.37265358  0.41552780     0.13100
H297        H  0.12524569  0.14735141  0.58433069     0.13200
H298        H  0.16407569  0.18864986  0.66475797     0.13100
H299        H  0.22546567  0.23860459  0.46410654     0.26400
H300        H  0.25873421  0.27466501  0.53419201     0.26400
C301        C  0.22411470  0.26150495  0.77885581    -0.20100
C302        C  0.23599576  0.23972532  0.80611250    -0.06600
C303        C  0.24658360  0.21709428  0.77732664     0.14200
C304        C  0.24581933  0.21741105  0.72165634    -0.20100
C305        C  0.23501248  0.24008485  0.69442646    -0.06600
C306        C  0.22354713  0.26197468  0.72323748     0.14200
C307        C  0.21132944  0.28623044  0.69516189    -0.23500
H308        H  0.21607118  0.27880219  0.80128033     0.15500
H309        H  0.25474190  0.20083053  0.69917928     0.15600
C310        C  0.25965017  0.19351657  0.80537234    -0.23400
H311        H  0.20312811  0.30145628  0.72359640     0.05800
H312        H  0.18695750  0.26876961  0.66964614     0.09000
H313        H  0.23448327  0.30703604  0.67014814     0.09000
H314        H  0.23715546  0.17317405  0.83169723     0.09000
H315        H  0.28462642  0.21151367  0.82954230     0.09000
H316        H  0.26720237  0.17777256  0.77693184     0.05700
C317        C  0.28906615  0.26019070  0.21978303    -0.20100
C318        C  0.25994341  0.26229981  0.19452474    -0.06600
C319        C  0.23231112  0.26422910  0.22535278     0.14200
C320        C  0.23354051  0.26240597  0.28076366    -0.20100
C321        C  0.26206751  0.25931948  0.30608398    -0.06600
C322        C  0.29057993  0.25887348  0.27537311     0.14200
C323        C  0.32198752  0.25610037  0.30105823    -0.23500
H324        H  0.31018593  0.25878471  0.19579946     0.15500
H325        H  0.21201699  0.26316394  0.30462452     0.15600
C326        C  0.20167544  0.26841371  0.19975748    -0.23400
H327        H  0.34136720  0.25524212  0.27111947     0.05800
H328        H  0.31053682  0.23035084  0.32534024     0.09000
H329        H  0.33833985  0.28060650  0.32683308     0.09000
H330        H  0.18462945  0.24418080  0.17384597     0.09000
H331        H  0.21408219  0.29427909  0.17559625     0.09000
H332        H  0.18281147  0.27018427  0.22972386     0.05700
C333        C  0.23412451  0.46712308  0.71969217    -0.20100
C334        C  0.25885911  0.99220090  0.69492972    -0.06600
C335        C  0.27963323  0.02560849  0.72367820     0.14200
C336        C  0.27950612  0.02438307  0.77924876    -0.20100
C337        C  0.25897121  0.99066989  0.80666230    -0.06600
C338        C  0.23305898  0.46725737  0.77521876     0.14200
C339        C  0.20199786  0.43457660  0.80401089    -0.23500
H340        H  0.21257316  0.44372791  0.69806082     0.15500
H341        H  0.29451604  0.05006486  0.80145720     0.15600
C342        C  0.30121349  0.06304677  0.69702197    -0.23400
H343        H  0.18455945  0.44351259  0.82628743     0.05800
H344        H  0.21390541  0.42260645  0.83207328     0.09000
H345        H  0.20410171  0.89684427  0.77798690     0.09000
H346        H  0.31813609  0.58715079  0.70378000     0.09000
H347        H  0.29954143  0.06140998  0.65317434     0.09000
H348        H  0.33106852  0.07604306  0.70812056     0.05700
C349        C  0.24548498  0.53445885  0.21901865    -0.20100
C350        C  0.23819641  0.00221843  0.19576970    -0.06600
C351        C  0.22803419  0.96904647  0.22422529     0.14200
C352        C  0.22820649  0.96976119  0.27979762    -0.20100
C353        C  0.23848114  0.00277389  0.30762155    -0.06600
C354        C  0.24678924  0.53470086  0.27468117     0.14200
C355        C  0.25696581  0.57060597  0.30289373    -0.23500
H356        H  0.25214216  0.55985322  0.19788954     0.15500
H357        H  0.22106217  0.94450913  0.30168617     0.15600
C358        C  0.21755693  0.93263254  0.19728206    -0.23400
H359        H  0.28493632  0.59261158  0.28939711     0.05800
H360        H  0.25883938  0.07017943  0.35031934     0.09000
H361        H  0.23617810  0.57932850  0.29333048     0.09000
H362        H  0.23727501  0.92305243  0.20931615     0.09000
H363        H  0.21772126  0.43539681  0.14567342     0.09000
H364        H  0.18891016  0.91139307  0.20951688     0.05700
C365        C  0.47552915  0.24084053  0.71632653    -0.20100
C366        C  0.50929807  0.26540282  0.69134066    -0.06600
C367        C  0.03656706  0.28542850  0.72345516     0.14200
C368        C  0.03392467  0.28398940  0.77897547    -0.20100
C369        C  0.50342532  0.26387566  0.80248533    -0.06600
C370        C  0.47226148  0.23964680  0.77166103     0.14200
C371        C  0.43583634  0.21211774  0.79723126    -0.23500
H372        H  0.45190027  0.22205086  0.69230967     0.15500
H373        H  0.05883092  0.29924714  0.80269972     0.15600
C374        C  0.07403241  0.30817600  0.69717274    -0.23400
H375        H  0.41428301  0.19554615  0.76724274     0.05800
H376        H  0.42528345  0.22715332  0.82200284     0.09000
H377        H  0.43987851  0.19246935  0.82254947     0.09000
H378        H  0.07352399  0.32955111  0.67113081     0.09000
H379        H  0.08070588  0.28978901  0.67294421     0.09000
H380        H  0.09660710  0.32261692  0.72671822     0.05700
C381        C  0.02550773  0.24341232  0.21907337    -0.20100
C382        C  0.49407871  0.23533700  0.19167936    -0.06600
C383        C  0.46130243  0.22243602  0.22243136     0.14200
C384        C  0.46399161  0.22457866  0.27793685    -0.20100
C385        C  0.49859346  0.23830778  0.30306078    -0.06600
C386        C  0.02731408  0.24336228  0.27462973     0.14200
C387        C  0.06381474  0.25383347  0.30117289    -0.23500
H388        H  0.05024557  0.25059415  0.19562957     0.15500
H389        H  0.43916207  0.21591827  0.30188689     0.15600
C390        C  0.42367810  0.20653098  0.19653928    -0.23400
H391        H  0.08629053  0.26005945  0.27178269     0.05800
H392        H  0.06059605  0.23053493  0.32665129     0.09000
H393        H  0.07257887  0.27898603  0.32600170     0.09000
H394        H  0.41845449  0.18209635  0.17204756     0.09000
H395        H  0.42275561  0.22781804  0.17082207     0.09000
H396        H  0.40089290  0.19724210  0.22634817     0.05700
N397        N  0.99965339  0.71193709  0.04771985    -0.36400
N398        N  0.49367785  0.77972326  0.06516953    -0.56900
N399        N  0.00115795  0.79033579  0.94649528    -0.36400
N400        N  0.00102684  0.72036040  0.93246794    -0.56900
C401        C  0.49117380  0.71058609  0.10553788     0.27200
C402        C  0.99441469  0.67832087  0.03228773     0.27200
C403        C  0.49140365  0.81524451  0.96449282     0.27200
C404        C  0.99752501  0.78685927  0.89310168     0.27200
C405        C  0.49579363  0.77280341  0.11699174     0.35800
C406        C  0.49726056  0.81400652  0.06255254     0.35800
C407        C  0.00544545  0.69012609  0.93460060     0.35800
C408        C  0.00656089  0.73172033  0.88140230     0.35800
C409        C  0.48161664  0.67543997  0.12408211    -0.21600
C410        C  0.98475075  0.65512718  0.07639565    -0.21600
C411        C  0.47878682  0.82521733  0.91984217    -0.21600
C412        C  0.98852233  0.81272619  0.87355916    -0.21600
C413        C  0.50014891  0.80265253  0.14748767    -0.22700
C414        C  0.50108258  0.82878080  0.11291468    -0.22700
C415        C  0.01294935  0.68167835  0.88446387    -0.22700
C416        C  0.01368836  0.70802981  0.85075550    -0.22700
C417        C  0.49199086  0.73921297  0.13743817    -0.18000
C418        C  0.00073481  0.66875096  0.98053311    -0.18000
C419        C  0.00322591  0.76183982  0.86122269    -0.18000
C420        C  0.49480259  0.83101826  0.01549215    -0.18000
H421        H  0.47274404  0.66461813  0.16377707     0.14900
H422        H  0.97957004  0.62681711  0.07809210     0.14900
H423        H  0.46881019  0.84495275  0.91756971     0.14900
H424        H  0.98424753  0.81736026  0.83256868     0.14900
H425        H  0.50209003  0.80520653  0.19022944     0.13200
H426        H  0.50376403  0.85534853  0.12363618     0.13100
H427        H  0.01709115  0.65872427  0.87317437     0.13200
H428        H  0.01857236  0.70933042  0.80840477     0.13100
H429        H  0.01143551  0.73589333  0.02480408     0.26400
H430        H  0.01181093  0.77764963  0.97068151     0.26400
N431        N  0.49531053  0.70903489  0.45093496    -0.36400
N432        N  0.50034941  0.71840916  0.56562905    -0.56900
N433        N  0.50380559  0.78978799  0.55292617    -0.36400
N434        N  0.49565715  0.77875521  0.43807177    -0.56900
C435        C  0.48779853  0.67466778  0.46645849     0.27200
C436        C  0.48622132  0.70698119  0.39898466     0.27200
C437        C  0.49871623  0.78515093  0.60612189     0.27200
C438        C  0.49600136  0.81673125  0.53857569     0.27200
C439        C  0.50410215  0.68781932  0.56239112     0.35800
C440        C  0.50769802  0.73017489  0.61638605     0.35800
C441        C  0.49970891  0.77216700  0.38672336     0.35800
C442        C  0.50266365  0.81424923  0.44051611     0.35800
C443        C  0.47399982  0.65059978  0.42341671    -0.21600
C444        C  0.47291156  0.67096786  0.38105176    -0.21800
C445        C  0.48829583  0.80993339  0.62595984    -0.21600
C446        C  0.48654992  0.82982255  0.58343886    -0.21600
C447        C  0.51334535  0.67977476  0.61152875    -0.22700
C448        C  0.51564598  0.70663595  0.64574895    -0.22700
C449        C  0.50920347  0.80361945  0.35637305    -0.22700
C450        C  0.51095802  0.83030585  0.39055506    -0.22700
C451        C  0.49635117  0.66539423  0.51680464    -0.18000
C452        C  0.49233196  0.73735785  0.36642285    -0.18000
C453        C  0.49917625  0.83137852  0.48671140    -0.18000
C454        C  0.50438342  0.76003561  0.63758598    -0.18000
H455        H  0.46616815  0.62149936  0.42189463     0.14900
H456        H  0.46409642  0.66060391  0.34124979     0.14900
H457        H  0.48258906  0.81339019  0.66687227     0.14900
H458        H  0.47930113  0.85162405  0.58545745     0.14900
H459        H  0.51715821  0.65650932  0.62202186     0.13200
H460        H  0.52180904  0.70824966  0.68766318     0.13100
H461        H  0.51386990  0.80683964  0.31396279     0.13200
H462        H  0.51732521  0.85820117  0.37986904     0.13100
H463        H  0.51035911  0.73334996  0.47246185     0.26400
H464        H  0.51561866  0.77808771  0.52869086     0.26400
O465        O  0.45398651  0.51908547  0.96350693    -0.88100
C466        C  0.03066726  0.56629775  0.07497151     0.87900
Mg467      Mg  0.40978159  0.96210005  0.96766623     1.58100
O468        O  0.06356697  0.54726922  0.95593685    -0.87800
O469        O  0.99781618  0.55688280  0.90632604    -0.75200
C470        C  0.49449398  0.86658563  0.01807116     0.93000
O471        O  0.44076459  0.50002481  0.08838112    -0.75000
O472        O  0.46418082  0.86611261  0.02874967    -0.82500
Mg473      Mg  0.46015843  0.55124039  0.03383613     1.58000
C474        C  0.12932078  0.49624371  0.97436279     0.92900
O475        O  0.47645002  0.60583723  0.98969204    -0.80700
H476        H  0.07470620  0.55453780  0.87821734    -0.06100
C477        C  0.03332003  0.96885797  0.08260812     0.87800
O478        O  0.44144433  0.94374864  0.91096976    -0.75200
O479        O  0.01686614  0.56430666  0.03095693    -0.88000
O480        O  0.12891830  0.52638580  0.98241043    -0.80800
C481        C  0.13345878  0.63056651  0.01296361     0.93000
C482        C  0.50702495  0.63610731  0.98310982     0.92900
Mg483      Mg  0.03901617  0.95089921  0.96718268     1.58000
O484        O  0.02477586  0.89667172  0.00970846    -0.80700
O485        O  0.05668924  0.00174192  0.91316577    -0.75000
O486        O  0.10291194  0.62993361  0.00331251    -0.80800
O487        O  0.40043956  0.53882871  0.02511400    -0.82500
O488        O  0.39538951  0.87272685  0.99180066    -0.80900
C489        C  0.06591952  0.53573412  0.91173098     0.87300
O490        O  0.48135279  0.93747037  0.96037653    -0.88000
O491        O  0.04555341  0.98280403  0.03863726    -0.88100
O492        O  0.50207001  0.94597913  0.08558652    -0.75200
Mg493      Mg  0.04873388  0.59030318  0.96022571     1.58000
O494        O  0.13515699  0.60106828  0.02058649    -0.82500
H495        H  0.44766378  0.52356154  0.88576818    -0.06300
O496        O  0.43705115  0.95649592  0.03673592    -0.87800
H497        H  0.42792877  0.95055304  0.11500159    -0.06100
H498        H  0.47619767  0.92609974  0.88277043    -0.06300
C499        C  0.43577848  0.96878171  0.08091350     0.87300
C500        C  0.46610223  0.53310710  0.91956589     0.87900
C501        C  0.46672176  0.93505569  0.91684281     0.87900
H502        H  0.05160391  0.97873649  0.11655735    -0.06200
O503        O  0.05603921  0.55787455  0.08161161    -0.75300
Mg504      Mg  0.45051635  0.91268593  0.03316360     1.58000
H505        H  0.02032433  0.57458660  0.10878813    -0.06300
C506        C  0.37074252  0.50788899  0.01876272     0.92900
O507        O  0.36365463  0.90209921  0.97445125    -0.82500
C508        C  0.36506861  0.87242399  0.98158985     0.93000
O509        O  0.03382150  0.63595832  0.96804854    -0.82500
Mg510      Mg  0.08931885  0.54073860  0.02640973     1.58200
O511        O  0.37206186  0.97712495  0.01629929    -0.80800
O512        O  0.09900460  0.96433713  0.97205253    -0.82500
O513        O  0.04671128  0.98311936  0.46494232    -0.88100
C514        C  0.46848896  0.93406234  0.58026995     0.87900
Mg515      Mg  0.09145933  0.54120256  0.46592293     1.58100
O516        O  0.43813894  0.95437096  0.46032181    -0.87800
O517        O  0.50380181  0.94327954  0.41116402    -0.75200
C518        C  0.49869910  0.63095060  0.52045013     0.93000
O519        O  0.05580067  0.00053413  0.59014887    -0.75000
O520        O  0.03409613  0.63440648  0.52451382    -0.82500
Mg521      Mg  0.03935038  0.95026374  0.53508240     1.58000
C522        C  0.36852793  0.49930471  0.47824430     0.92900
O523        O  0.02632416  0.89677731  0.49080560    -0.80700
H524        H  0.42719841  0.94716744  0.38267634    -0.06100
C525        C  0.46266965  0.52922811  0.58236049     0.87800
O526        O  0.05730729  0.55761839  0.41130945    -0.75200
O527        O  0.48305875  0.93622106  0.53661073    -0.88000
O528        O  0.37151398  0.97444702  0.48413874    -0.80800
C529        C  0.36676844  0.87044960  0.51454494     0.93000
C530        C  0.49810952  0.86637598  0.48193671     0.92900
Mg531      Mg  0.45767156  0.54709254  0.46785892     1.58000
O532        O  0.46932392  0.59982115  0.51314178    -0.80700
O533        O  0.44212373  0.49712382  0.41289179    -0.75000
O534        O  0.39724060  0.87066536  0.50574982    -0.80800
O535        O  0.09936934  0.96462942  0.52972959    -0.82500
O536        O  0.10417100  0.62954461  0.48791991    -0.80900
C537        C  0.43544329  0.96580584  0.41626180     0.87300
O538        O  0.01711332  0.56245121  0.46248568    -0.88000
O539        O  0.45190868  0.51514427  0.53817808    -0.88100
O540        O  0.99911386  0.55585834  0.58758163    -0.75200
Mg541      Mg  0.45243275  0.91071856  0.46460247     1.58000
O542        O  0.36536946  0.90006839  0.52247203    -0.82500
H543        H  0.05588658  0.97990594  0.38775513    -0.06300
O544        O  0.06522388  0.54698791  0.53671609    -0.87800
H545        H  0.07516245  0.55386144  0.61462197    -0.06100
H546        H  0.02026682  0.57262353  0.38457202    -0.06300
C547        C  0.06719786  0.53530569  0.58096079     0.87300
C548        C  0.03635470  0.96949262  0.42051267     0.87900
C549        C  0.03103790  0.56481366  0.41823983     0.87900
H550        H  0.44362032  0.51869652  0.61566908    -0.06200
O551        O  0.44314759  0.94267258  0.58617398    -0.75300
Mg552      Mg  0.04971179  0.58939985  0.53221597     1.58000
H553        H  0.47812665  0.92548445  0.61442153    -0.06300
C554        C  0.13261902  0.49825943  0.51817955     0.92900
O555        O  0.13683510  0.60099887  0.47157011    -0.82500
C556        C  0.13500205  0.63036675  0.47902837     0.93000
O557        O  0.46729741  0.86497852  0.47185203    -0.82500
Mg558      Mg  0.41086638  0.96026590  0.52995116     1.58200
O559        O  0.13181372  0.52812246  0.50982331    -0.80800
O560        O  0.39725472  0.53113526  0.47310133    -0.82500
N561        N  0.28191964  0.50517950  0.05992107    -0.36400
N562        N  0.21029937  0.50121874  0.04692859    -0.56900
N563        N  0.21753240  0.49830629  0.93290349    -0.36400
N564        N  0.29020187  0.50448248  0.94582997    -0.56900
C565        C  0.27602565  0.51330430  0.10970605     0.27200
C566        C  0.31821259  0.51441076  0.05633835     0.27200
C567        C  0.18844257  0.50459439  0.93605545     0.27200
C568        C  0.23123896  0.50714400  0.88309047     0.27200
C569        C  0.20961305  0.49694837  0.10016058     0.35800
C570        C  0.17550083  0.49283235  0.03248830     0.35800
C571        C  0.31902720  0.49978524  0.96074052     0.35800
C572        C  0.28547646  0.49732053  0.89323083     0.35800
C573        C  0.30899666  0.52784463  0.13816793    -0.21600
C574        C  0.33563547  0.52852051  0.10445771    -0.21600
C575        C  0.18346565  0.51746694  0.88776656    -0.21600
C576        C  0.21067051  0.51924961  0.85427700    -0.21600
C577        C  0.17433303  0.48624704  0.11985293    -0.22700
C578        C  0.15269490  0.48366028  0.07698920    -0.22700
C579        C  0.33306487  0.49024297  0.91695961    -0.22700
C580        C  0.31169570  0.48854889  0.87430345    -0.22700
C581        C  0.24098873  0.50467108  0.13140905    -0.18000
C582        C  0.33478858  0.50714840  0.01223118    -0.18000
C583        C  0.25925033  0.50088377  0.86163778    -0.18000
C584        C  0.16507613  0.49685532  0.98053079    -0.18000
H585        H  0.31326961  0.53633950  0.17932063     0.14900
H586        H  0.36431150  0.53760489  0.11468999     0.14900
H587        H  0.16220093  0.52442459  0.87756327     0.14900
H588        H  0.21433454  0.52761245  0.81303054     0.14900
H589        H  0.16530685  0.48141557  0.16086181     0.13200
H590        H  0.12369262  0.47655584  0.07855158     0.13100
H591        H  0.35664626  0.48560089  0.91545217     0.13200
H592        H  0.31539946  0.48214697  0.83387373     0.13100
H593        H  0.26134118  0.48951301  0.03250126     0.26400
H594        H  0.22440503  0.48419758  0.96077165     0.26400
N595        N  0.28044649  0.49631251  0.43259074    -0.36400
N596        N  0.21247235  0.49963676  0.44555988    -0.56900
N597        N  0.21792561  0.49590253  0.56081716    -0.36400
N598        N  0.28724620  0.49563916  0.54814822    -0.56900
C599        C  0.27548508  0.50364517  0.38191623     0.27200
C600        C  0.31560443  0.50214779  0.43638895     0.27200
C601        C  0.19023217  0.50419523  0.55716762     0.27200
C602        C  0.23073242  0.50344907  0.61110081     0.27200
C603        C  0.21206337  0.49637457  0.39213149     0.35800
C604        C  0.17894210  0.49529889  0.45975139     0.35800
C605        C  0.31613635  0.49082006  0.53401729     0.35800
C606        C  0.28347905  0.49102747  0.60134196     0.35800
C607        C  0.30763404  0.51336910  0.35281231    -0.21600
C608        C  0.33295130  0.51241621  0.38718592    -0.21600
C609        C  0.18498989  0.51672659  0.60566713    -0.21600
C610        C  0.21071463  0.51641610  0.63974759    -0.21600
C611        C  0.17841248  0.49062576  0.37217347    -0.22700
C612        C  0.15738883  0.48983606  0.41494008    -0.22700
C613        C  0.33097101  0.48347081  0.57885590    -0.22700
C614        C  0.31012580  0.48338850  0.62133410    -0.22700
C615        C  0.24233367  0.50050063  0.36070208    -0.18000
C616        C  0.33175312  0.49662662  0.48235609    -0.18000
C617        C  0.25860189  0.49709697  0.63264198    -0.18000
C618        C  0.16836211  0.49894473  0.51195146    -0.18000
H619        H  0.31237407  0.52036131  0.31108559     0.14900
H620        H  0.36085117  0.51834200  0.37690769     0.14900
H621        H  0.16473870  0.52521309  0.61545431     0.14900
H622        H  0.21411240  0.52457746  0.68103918     0.14900
H623        H  0.17002114  0.48770277  0.33104896     0.13200
H624        H  0.12963200  0.48633651  0.41308118     0.13100
H625        H  0.35497021  0.47955928  0.58126896     0.13200
H626        H  0.31483408  0.47938079  0.66240088     0.13100
H627        H  0.25997357  0.48445552  0.46155287     0.26400
H628        H  0.22443861  0.48176505  0.53249857     0.26400
N629        N  0.21744722  0.71880771  0.05970935    -0.36400
N630        N  0.21198200  0.71298052  0.94442107    -0.56900
N631        N  0.27892568  0.78630633  0.93404592    -0.36400
N632        N  0.28694502  0.78969973  0.04940392    -0.56900
C633        C  0.18876309  0.68351847  0.05550512     0.27200
C634        C  0.22834719  0.72436698  0.11093650     0.27200
C635        C  0.27365057  0.77588067  0.88256388     0.27200
C636        C  0.31317635  0.81677653  0.93801892     0.27200
C637        C  0.17950382  0.68206842  0.95710766     0.35800
C638        C  0.21208425  0.71697824  0.89113909     0.35800
C639        C  0.28327270  0.78875613  0.10284623     0.35800
C640        C  0.31574066  0.82371654  0.03694400     0.35800
C641        C  0.18081739  0.66662251  0.10496403    -0.21600
C642        C  0.20582656  0.69233504  0.13990007    -0.21600
C643        C  0.30462834  0.80069285  0.85319616    -0.21600
C644        C  0.32953555  0.82647761  0.88819272    -0.21600
C645        C  0.15932469  0.66599565  0.91126755    -0.22700
C646        C  0.17987276  0.68808839  0.86970121    -0.22700
C647        C  0.31022701  0.82207252  0.12447969    -0.22700
C648        C  0.33078726  0.84414237  0.08290605    -0.22700
C649        C  0.16839739  0.66677692  0.00886262    -0.18000
C650        C  0.25685910  0.75796459  0.13297858    -0.18000
C651        C  0.32984147  0.83650153  0.98513479    -0.18000
C652        C  0.24142214  0.74523944  0.86085489    -0.18000
H653        H  0.15908838  0.63876214  0.11504946     0.14900
H654        H  0.20701801  0.68799089  0.18200612     0.14900
H655        H  0.30897331  0.80022889  0.81090375     0.14900
H656        H  0.35669035  0.84961066  0.87809706     0.14900
H657        H  0.13271846  0.64068418  0.90777750     0.13200
H658        H  0.17210004  0.68319135  0.82831085     0.13100
H659        H  0.31471647  0.82970351  0.16595866     0.13200
H660        H  0.35420076  0.87211295  0.08626558     0.13100
H661        H  0.22643737  0.73910584  0.03064902     0.26400
H662        H  0.25903935  0.77528618  0.96382543     0.26400
N663        N  0.22091810  0.71773928  0.43453442    -0.36400
N664        N  0.28979820  0.78857276  0.44529956    -0.56900
N665        N  0.28015764  0.78436212  0.55950813    -0.36400
N666        N  0.21253450  0.71232056  0.54849312    -0.56900
C667        C  0.23448543  0.72255413  0.38458895     0.27200
C668        C  0.19339830  0.68190468  0.43906465     0.27200
C669        C  0.31549122  0.81306594  0.55561515     0.27200
C670        C  0.27487406  0.77237785  0.61024974     0.27200
C671        C  0.28501658  0.78860852  0.39228583     0.35800
C672        C  0.31651146  0.82340760  0.45841258     0.35800
C673        C  0.17950349  0.68246886  0.53521110     0.35800
C674        C  0.21132074  0.71703197  0.60140091     0.35800
C675        C  0.21540795  0.68933094  0.35692608    -0.21600
C676        C  0.18941956  0.66365977  0.39132206    -0.21600
C677        C  0.33280607  0.81971584  0.60449130    -0.21600
C678        C  0.30712100  0.79404925  0.63908584    -0.21600
C679        C  0.30907526  0.82348717  0.37146180    -0.22700
C680        C  0.32911177  0.84552714  0.41332564    -0.22700
C681        C  0.15761522  0.66773123  0.58035223    -0.22700
C682        C  0.17772145  0.68967531  0.62211537    -0.22700
C683        C  0.26100270  0.75694858  0.36201978    -0.18000
C684        C  0.17006463  0.66639069  0.48389450    -0.18000
C685        C  0.24108945  0.74397056  0.63198955    -0.18000
C686        C  0.33157485  0.83473375  0.50983230    -0.18000
H687        H  0.21920876  0.68431900  0.31583893     0.14900
H688        H  0.16942214  0.63508874  0.38175764     0.14900
H689        H  0.36087388  0.84106343  0.61432188     0.14900
H690        H  0.31163798  0.79185632  0.68085694     0.14900
H691        H  0.31225068  0.83200004  0.33031474     0.13200
H692        H  0.35074526  0.87442649  0.41076806     0.13100
H693        H  0.13034992  0.64317908  0.58340507     0.13200
H694        H  0.16889724  0.68549720  0.66321492     0.13100
H695        H  0.22656085  0.73892748  0.46136877     0.26400
H696        H  0.25953266  0.77634800  0.53093079     0.26400
C697        C  0.22491406  0.76222612  0.77453489    -0.20100
C698        C  0.23882147  0.74227268  0.80209218    -0.06600
C699        C  0.25162931  0.72130191  0.77371700     0.14200
C700        C  0.25051918  0.72098654  0.71816220    -0.20100
C701        C  0.23762761  0.74178074  0.69062428    -0.06600
C702        C  0.22440157  0.76241175  0.71891466     0.14200
C703        C  0.21044982  0.78506532  0.69030076    -0.23500
H704        H  0.21524933  0.77832351  0.79668321     0.15500
H705        H  0.26091013  0.70553291  0.69595506     0.15600
C706        C  0.26750558  0.70026990  0.80205626    -0.23400
H707        H  0.20107528  0.79949926  0.71839653     0.05800
H708        H  0.18649105  0.76659108  0.66476155     0.09000
H709        H  0.23308197  0.80647624  0.66522053     0.09000
H710        H  0.24610475  0.67916400  0.82888130     0.09000
H711        H  0.29208854  0.71990219  0.82570631     0.09000
H712        H  0.27659251  0.68566062  0.77383161     0.05700
C713        C  0.28555861  0.75347341  0.21735414    -0.20100
C714        C  0.25954132  0.76051138  0.19181383    -0.06600
C715        C  0.23532950  0.76816088  0.22224673     0.14200
C716        C  0.23712277  0.76777014  0.27773911    -0.20100
C717        C  0.26253934  0.75991045  0.30327083    -0.06600
C718        C  0.28722359  0.75293529  0.27292256     0.14200
C719        C  0.31453164  0.74401894  0.29926519    -0.23500
H720        H  0.30397904  0.74757041  0.19365439     0.15500
H721        H  0.21822673  0.77299239  0.30145071     0.15600
C722        C  0.20752507  0.77650087  0.19612076    -0.23400
H723        H  0.33166215  0.73909017  0.26974478     0.05800
H724        H  0.29924856  0.71852814  0.32386821     0.09000
H725        H  0.33361938  0.76756858  0.32495653     0.09000
H726        H  0.18778756  0.75238297  0.17184709     0.09000
H727        H  0.22239531  0.80135202  0.17019896     0.09000
H728        H  0.19102834  0.78223128  0.22576519     0.05700
C729        C  0.23932686  0.95829415  0.72231132    -0.20100
C730        C  0.26184223  0.49745567  0.69134393    -0.06600
C731        C  0.28990113  0.52830813  0.71916136     0.14200
C732        C  0.28924428  0.52808732  0.77477874    -0.20100
C733        C  0.26088846  0.49819615  0.80301620    -0.06600
C734        C  0.23926304  0.95714916  0.77798461     0.14200
C735        C  0.21791051  0.92037240  0.80628346    -0.23500
H736        H  0.22350570  0.93279090  0.70000437     0.15500
H737        H  0.31029021  0.55192505  0.79630344     0.15600
C738        C  0.32005979  0.56234331  0.69161311    -0.23400
H739        H  0.19605357  0.92044644  0.83199260     0.05800
H740        H  0.23729719  0.91560733  0.83115262     0.09000
H741        H  0.18343734  0.41229534  0.77615304     0.09000
H742        H  0.29017162  0.08133882  0.71036258     0.09000
H743        H  0.31813383  0.56045506  0.64782430     0.09000
H744        H  0.34778562  0.56648352  0.70318864     0.05700
C745        C  0.24749548  0.03505542  0.22360886    -0.20100
C746        C  0.23712854  0.50225514  0.19015045    -0.06600
C747        C  0.22861595  0.46913121  0.21753938     0.14200
C748        C  0.22996625  0.46939127  0.27307715    -0.20100
C749        C  0.23941753  0.50182667  0.30196862    -0.06600
C750        C  0.24792236  0.03580405  0.27927748     0.14200
C751        C  0.25951787  0.07236533  0.30648293    -0.23500
H752        H  0.25547411  0.06048354  0.20170022     0.15500
H753        H  0.22406584  0.44416709  0.29408773     0.15600
C754        C  0.21848060  0.43319315  0.18938999    -0.23400
H755        H  0.28839417  0.09299721  0.29425926     0.05800
H756        H  0.25781049  0.56832641  0.34657986     0.09000
H757        H  0.24046650  0.08282674  0.29473464     0.09000
H758        H  0.23914466  0.42436625  0.19921964     0.09000
H759        H  0.21810923  0.93457233  0.15343477     0.09000
H760        H  0.19042118  0.41126858  0.20272336     0.05700
C761        C  0.47179219  0.73808214  0.72424557    -0.20100
C762        C  0.50405659  0.76319302  0.69641880    -0.06600
C763        C  0.04124802  0.78697798  0.72130407     0.14200
C764        C  0.03860079  0.78672113  0.77687152    -0.20100
C765        C  0.50314548  0.76259884  0.80820393    -0.06600
C766        C  0.47109886  0.73720272  0.77985753     0.14200
C767        C  0.43651673  0.70868079  0.80833982    -0.23500
H768        H  0.44746847  0.71835268  0.70220697     0.15500
H769        H  0.06362008  0.80167181  0.80046126     0.15600
C770        C  0.07875673  0.80863603  0.69469600    -0.23400
H771        H  0.41398015  0.69104651  0.78018941     0.05800
H772        H  0.42596893  0.72288199  0.83485954     0.09000
H773        H  0.44303453  0.69014886  0.83234330     0.09000
H774        H  0.07865709  0.82972877  0.66758400     0.09000
H775        H  0.08495480  0.78950280  0.67149947     0.09000
H776        H  0.10144811  0.82329887  0.72400178     0.05700
C777        C  0.02911939  0.74700072  0.21934752    -0.20100
C778        C  0.48978871  0.73416814  0.19609396    -0.06600
C779        C  0.45720471  0.72579995  0.22518490     0.14200
C780        C  0.45821425  0.72562032  0.28087575    -0.20100
C781        C  0.49079169  0.73275950  0.30777295    -0.06600
C782        C  0.02977295  0.74681481  0.27506849     0.14200
C783        C  0.06630967  0.76054128  0.30341366    -0.23500
H784        H  0.05490480  0.75735659  0.19709043     0.15500
H785        H  0.43383153  0.72068098  0.30361011     0.15600
C786        C  0.42153121  0.71706084  0.19746955    -0.23400
H787        H  0.08990533  0.76917379  0.27515165     0.05800
H788        H  0.06492580  0.73802108  0.32894798     0.09000
H789        H  0.07209804  0.78489269  0.32847384     0.09000
H790        H  0.41289104  0.69265167  0.17108411     0.09000
H791        H  0.42563218  0.74126357  0.17342160     0.09000
H792        H  0.39853547  0.71033694  0.22614333     0.05700
N793        N  0.49945294  0.21208700  0.04839740    -0.36400
N794        N  0.99385849  0.27984567  0.06219386    -0.56900
N795        N  0.49857955  0.28837047  0.94563030    -0.36400
N796        N  0.50196172  0.22032353  0.93309475    -0.56900
C797        C  0.98987707  0.21031070  0.10276497     0.27200
C798        C  0.49578693  0.17900521  0.03345210     0.27200
C799        C  0.99107174  0.31541566  0.96110554     0.27200
C800        C  0.49506706  0.28432872  0.89228875     0.27200
C801        C  0.99824477  0.27395295  0.11365793     0.35800
C802        C  0.99926035  0.31479133  0.05901838     0.35800
C803        C  0.50791047  0.19110587  0.93603420     0.35800
C804        C  0.50821196  0.23184745  0.88217419     0.35800
C805        C  0.97975962  0.17516303  0.12192259    -0.21600
C806        C  0.48706105  0.15614769  0.07779928    -0.21600
C807        C  0.98055685  0.32750475  0.91637525    -0.21600
C808        C  0.48437008  0.30873272  0.87195677    -0.21600
C809        C  0.00597909  0.30516159  0.14345771    -0.22700
C810        C  0.00661746  0.33107914  0.10873916    -0.22700
C811        C  0.51740607  0.18360032  0.88658277    -0.22700
C812        C  0.51776661  0.20953872  0.85245994    -0.22700
C813        C  0.99331912  0.24008644  0.13453421    -0.18000
C814        C  0.50251009  0.16958950  0.98190198    -0.18000
C815        C  0.50265681  0.26033174  0.86112213    -0.18000
C816        C  0.99558730  0.33130409  0.01224576    -0.18000
H817        H  0.97191379  0.16507053  0.16214083     0.14900
H818        H  0.48306711  0.12827261  0.07981507     0.14900
H819        H  0.97321668  0.34922839  0.91405625     0.14900
H820        H  0.47962375  0.31250765  0.83080962     0.14900
H821        H  0.01043891  0.30878098  0.18581937     0.13200
H822        H  0.01167273  0.35862549  0.11892446     0.13100
H823        H  0.52304718  0.16149957  0.87596665     0.13200
H824        H  0.52370884  0.21130407  0.81037941     0.13100
H825        H  0.51009082  0.23586826  0.02521127     0.26400
H826        H  0.51034800  0.27701809  0.97033653     0.26400
N827        N  0.99930490  0.21087956  0.44843883    -0.36400
N828        N  0.00232982  0.21987853  0.56321994    -0.56900
N829        N  0.00716844  0.29222051  0.54961787    -0.36400
N830        N  0.00036404  0.28126761  0.43478644    -0.56900
C831        C  0.99271521  0.17675417  0.46381272     0.27200
C832        C  0.99210723  0.20932125  0.39582495     0.27200
C833        C  0.00238643  0.28818915  0.60286297     0.27200
C834        C  0.00128032  0.32037192  0.53505862     0.27200
C835        C  0.00525808  0.18877641  0.56097360     0.35800
C836        C  0.00819851  0.23120543  0.61422860     0.35800
C837        C  0.00248635  0.27378144  0.38321236     0.35800
C838        C  0.00511888  0.31598348  0.43646009     0.35800
C839        C  0.98155073  0.15334643  0.41995817    -0.21600
C840        C  0.98111563  0.17384756  0.37728252    -0.21800
C841        C  0.99451410  0.31483718  0.62261500    -0.21600
C842        C  0.99379247  0.33510444  0.57997033    -0.21600
C843        C  0.01238444  0.17992603  0.61097028    -0.22700
C844        C  0.01421784  0.20678792  0.64472796    -0.22700
C845        C  0.00831022  0.30385190  0.35197674    -0.22700
C846        C  0.00982133  0.33054375  0.38577336    -0.22700
C847        C  0.99930017  0.16694355  0.51515506    -0.18000
C848        C  0.99698597  0.23944259  0.36340769    -0.18000
C849        C  0.00331612  0.33399420  0.48279167    -0.18000
C850        C  0.00575883  0.26177899  0.63455740    -0.18000
H851        H  0.97496801  0.12458669  0.41829890     0.14900
H852        H  0.97403633  0.16387205  0.33697272     0.14900
H853        H  0.98966283  0.31920258  0.66353715     0.14900
H854        H  0.98821119  0.35804805  0.58194353     0.14900
H855        H  0.01532754  0.15625891  0.62219798     0.13200
H856        H  0.01904606  0.20796379  0.68702101     0.13100
H857        H  0.01070453  0.30617049  0.30921591     0.13200
H858        H  0.01369007  0.35746654  0.37434173     0.13100
H859        H  0.01227468  0.23488778  0.47100368     0.26400
H860        H  0.01713738  0.27884660  0.52535737     0.26400
O861        O  0.95382587  0.01823600  0.96308635    -0.88100
C862        C  0.53291873  0.06870832  0.07678966     0.87900
Mg863      Mg  0.90961387  0.46100875  0.96432085     1.58100
O864        O  0.56354337  0.04753724  0.95766952    -0.87800
O865        O  0.49789327  0.05750070  0.90901649    -0.75200
C866        C  0.99529977  0.36675888  0.01529056     0.93000
O867        O  0.94051222  0.99959940  0.08841963    -0.75000
O868        O  0.96468171  0.36592197  0.02479775    -0.82500
Mg869      Mg  0.95924250  0.05028468  0.03341023     1.58000
C870        C  0.62862675  0.99574178  0.97578579     0.92900
O871        O  0.97385945  0.10366683  0.98755189    -0.80700
H872        H  0.57413689  0.05423727  0.87980054    -0.06100
C873        C  0.53263203  0.46614022  0.08076940     0.87800
O874        O  0.94153501  0.44293624  0.90740867    -0.75200
O875        O  0.51836283  0.06579697  0.03311414    -0.88000
O876        O  0.62841070  0.02616661  0.98174150    -0.80800
C877        C  0.63461949  0.13116280  0.01211573     0.93000
C878        C  0.00376274  0.13458622  0.98152985     0.92900
Mg879      Mg  0.53838993  0.44923103  0.96556705     1.58000
O880        O  0.52157615  0.39376471  0.00625155    -0.80700
O881        O  0.55801148  0.50077122  0.91213825    -0.75000
O882        O  0.60395904  0.13055629  0.00376932    -0.80800
O883        O  0.89944423  0.03682565  0.02604901    -0.82500
O884        O  0.89580698  0.37195840  0.98814080    -0.80900
C885        C  0.56552462  0.03567512  0.91358285     0.87300
O886        O  0.98166321  0.43688009  0.95674386    -0.88000
O887        O  0.54460798  0.48052069  0.03698508    -0.88100
O888        O  0.00186463  0.44475546  0.08234135    -0.75200
Mg889      Mg  0.54945037  0.09091859  0.96175487     1.58000
O890        O  0.63632326  0.10163475  0.01940312    -0.82500
H891        H  0.94766233  0.02334602  0.88545862    -0.06300
O892        O  0.93720763  0.45570725  0.03285491    -0.87800
H893        H  0.92602165  0.44825274  0.11053343    -0.06100
H894        H  0.97664839  0.42577261  0.87902165    -0.06300
C895        C  0.93453609  0.46704206  0.07703459     0.87300
C896        C  0.96593745  0.03287833  0.91942789     0.87900
C897        C  0.96703663  0.43451505  0.91318157     0.87900
H898        H  0.55124525  0.47519047  0.11437928    -0.06200
O899        O  0.55825043  0.06018410  0.08323401    -0.75300
Mg900      Mg  0.95070899  0.41199282  0.02940878     1.58000
H901        H  0.52335070  0.07795808  0.11043935    -0.06300
C902        C  0.86973280  0.00638373  0.01733191     0.92900
O903        O  0.86382861  0.40131785  0.97298056    -0.82500
C904        C  0.86528417  0.37171383  0.98020553     0.93000
O905        O  0.53532196  0.13672472  0.96982342    -0.82500
Mg906      Mg  0.59011128  0.04152820  0.02736707     1.58200
O907        O  0.87177370  0.47529652  0.01337602    -0.80800
O908        O  0.59856755  0.46223561  0.97432389    -0.82500
O909        O  0.54708157  0.48373700  0.46640563    -0.88100
C910        C  0.97091775  0.43255445  0.58059362     0.87900
Mg911      Mg  0.59032365  0.03981615  0.46644512     1.58100
O912        O  0.93788506  0.45259978  0.46313558    -0.87800
O913        O  0.00447461  0.44519199  0.41094597    -0.75200
C914        C  0.00108646  0.13219170  0.51985574     0.93000
O915        O  0.55645592  0.50174061  0.59145228    -0.75000
O916        O  0.53602846  0.13585801  0.52212478    -0.82500
Mg917      Mg  0.54077677  0.45149189  0.53673734     1.58000
C918        C  0.86970993  0.00294985  0.47865273     0.92900
O919        O  0.52831786  0.39820669  0.49291720    -0.80700
H920        H  0.92505852  0.44466860  0.38612981    -0.06100
C921        C  0.96392602  0.02936448  0.58156059     0.87800
O922        O  0.55695099  0.05599628  0.40988497    -0.75200
O923        O  0.98503332  0.43587985  0.53627866    -0.88000
O924        O  0.87066111  0.47025525  0.49089091    -0.80800
C925        C  0.86875079  0.36765606  0.51601253     0.93000
C926        C  0.00159879  0.36853936  0.47771635     0.92900
Mg927      Mg  0.95918338  0.04866605  0.46728570     1.58000
O928        O  0.97140705  0.10124328  0.51324504    -0.80700
O929        O  0.94302278  0.99902484  0.41136853    -0.75000
O930        O  0.89948136  0.36888151  0.50548455    -0.80800
O931        O  0.60139471  0.46708533  0.53037294    -0.82500
O932        O  0.60404812  0.12932662  0.48565834    -0.80900
C933        C  0.93408709  0.46360058  0.41941134     0.87300
O934        O  0.51777615  0.06382161  0.45951811    -0.88000
O935        O  0.95263027  0.01592348  0.53717207    -0.88100
O936        O  0.49886803  0.05758371  0.58495085    -0.75200
Mg937      Mg  0.95388975  0.41059730  0.46472741     1.58000
O938        O  0.86667906  0.39662872  0.52657625    -0.82500
H939        H  0.55585431  0.48054304  0.38906299    -0.06300
O940        O  0.56343017  0.04645966  0.53531707    -0.87800
H941        H  0.57350225  0.05444228  0.61307395    -0.06100
H942        H  0.52110794  0.07190941  0.38104030    -0.06300
C943        C  0.56544678  0.03541238  0.57997246     0.87300
C944        C  0.53657951  0.46993574  0.42210137     0.87900
C945        C  0.53149587  0.06453320  0.41558213     0.87900
H946        H  0.94515241  0.01853719  0.61513550    -0.06200
O947        O  0.94512424  0.44025969  0.58848815    -0.75300
Mg948      Mg  0.54978343  0.09000261  0.52995724     1.58000
H949        H  0.98140423  0.42381376  0.61359970    -0.06300
C950        C  0.63013162  0.99671593  0.52055181     0.92900
O951        O  0.63615059  0.09995150  0.47200372    -0.82500
C952        C  0.63471390  0.12966920  0.47817853     0.93000
O953        O  0.97020083  0.36627687  0.46986073    -0.82500
Mg954      Mg  0.91137561  0.45725085  0.53428949     1.58200
O955        O  0.62913733  0.02667334  0.51413280    -0.80800
O956        O  0.89913162  0.03414341  0.47291063    -0.82500
N957        N  0.78215473  0.00538993  0.06156537    -0.36400
N958        N  0.70902482  0.99850787  0.04878498    -0.56900
N959        N  0.71783642  0.00013965  0.93408014    -0.36400
N960        N  0.78947394  0.00402909  0.94689231    -0.56900
C961        C  0.76932018  0.99740133  0.11194579     0.27200
C962        C  0.81175849  0.99986041  0.05793931     0.27200
C963        C  0.68177345  0.99156298  0.93714026     0.27200
C964        C  0.72435351  0.99405179  0.88357257     0.27200
C965        C  0.71264951  0.00372497  0.10191358     0.35800
C966        C  0.67905095  0.00147557  0.03443904     0.35800
C967        C  0.82407491  0.01172649  0.96108182     0.35800
C968        C  0.79044469  0.00928236  0.89390281     0.35800
C969        C  0.79135376  0.98713088  0.14084284    -0.21600
C970        C  0.81814753  0.98866088  0.10667984    -0.21600
C971        C  0.66520813  0.98033732  0.88780775    -0.21600
C972        C  0.69207088  0.98176188  0.85398476    -0.21600
C973        C  0.68442707  0.00925978  0.12166031    -0.22700
C974        C  0.66306961  0.00768516  0.07908112    -0.22700
C975        C  0.84707993  0.02168919  0.91669617    -0.22700
C976        C  0.82574617  0.02016913  0.87414741    -0.22700
C977        C  0.73964660  0.00119029  0.13335378    -0.18000
C978        C  0.83430127  0.00663243  0.01256489    -0.18000
C979        C  0.75924648  0.00178445  0.86260183    -0.18000
C980        C  0.66440160  0.99634286  0.98230171    -0.18000
H981        H  0.78855520  0.97952027  0.18235469     0.14900
H982        H  0.84003206  0.98255331  0.11670788     0.14900
H983        H  0.63690159  0.97246571  0.87700542     0.14900
H984        H  0.68839645  0.97516673  0.81212108     0.14900
H985        H  0.67938639  0.01340917  0.16258659     0.13200
H986        H  0.63828984  0.01033372  0.08106614     0.13100
H987        H  0.87604484  0.02867989  0.91497032     0.13200
H988        H  0.83495849  0.02575382  0.83324711     0.13100
H989        H  0.77396902  0.01802660  0.03318526     0.26400
H990        H  0.73787217  0.01373017  0.96295838     0.26400
N991        N  0.78343298  0.00445428  0.43489079    -0.36400
N992        N  0.71135748  0.00058974  0.44777287    -0.56900
N993        N  0.71847419  0.99972455  0.56288423    -0.36400
N994        N  0.78799483  0.99857253  0.55006924    -0.56900
C995        C  0.77346759  0.00168023  0.38340054     0.27200
C996        C  0.81414360  0.00075642  0.43738842     0.27200
C997        C  0.68303414  0.99301976  0.55979946     0.27200
C998        C  0.72419918  0.99331204  0.61347578     0.27200
C999        C  0.71495292  0.00540411  0.39454455     0.35800
C1000       C  0.68106914  0.00308322  0.46219619     0.35800
C1001       C  0.82147682  0.00259839  0.53632175     0.35800
C1002       C  0.78806222  0.00157799  0.60348325     0.35800
C1003       C  0.79875784  0.99685654  0.35263961    -0.21600
C1004       C  0.82447707  0.99645119  0.38667598    -0.21600
C1005       C  0.66615222  0.98277535  0.60930844    -0.21600
C1006       C  0.69215688  0.98294515  0.64321429    -0.21600
C1007       C  0.68638941  0.01032099  0.37489887    -0.22700
C1008       C  0.66491401  0.00874829  0.41754400    -0.22700
C1009       C  0.84240856  0.00707953  0.58153875    -0.22700
C1010       C  0.82134431  0.00666243  0.62394080    -0.22700
C1011       C  0.74304318  0.00461913  0.36289323    -0.18000
C1012       C  0.83372426  0.00204759  0.48385877    -0.18000
C1013       C  0.75817757  0.99874940  0.63447056    -0.18000
C1014       C  0.66625949  0.99807604  0.51439854    -0.18000
H1015       H  0.79884929  0.99403661  0.30998618     0.14900
H1016       H  0.84806653  0.99327367  0.37532412     0.14900
H1017       H  0.63818336  0.97631222  0.62017702     0.14900
H1018       H  0.68803226  0.97651177  0.68514340     0.14900
H1019       H  0.68142928  0.01453899  0.33404558     0.13200
H1020       H  0.64000794  0.01116139  0.41558951     0.13100
H1021       H  0.87019790  0.01069719  0.58383507     0.13200
H1022       H  0.82961069  0.00968557  0.66512734     0.13100
H1023       H  0.77189316  0.01164199  0.46605464     0.26400
H1024       H  0.73892081  0.01245998  0.53399123     0.26400
N1025       N  0.71868952  0.21893823  0.05842862    -0.36400
N1026       N  0.71292175  0.21343766  0.94381370    -0.56900
N1027       N  0.78025936  0.28535084  0.93354039    -0.36400
N1028       N  0.78729173  0.28975168  0.04862895    -0.56900
C1029       C  0.69147531  0.18304391  0.05344019     0.27200
C1030       C  0.73097686  0.22372774  0.10896061     0.27200
C1031       C  0.77636004  0.27318806  0.88295818     0.27200
C1032       C  0.81535781  0.31421754  0.93843649     0.27200
C1033       C  0.67937164  0.18411031  0.95681251     0.35800
C1034       C  0.71244042  0.21849037  0.89090353     0.35800
C1035       C  0.78170091  0.28972675  0.10154964     0.35800
C1036       C  0.81402913  0.32464826  0.03554834     0.35800
C1037       C  0.68612445  0.16484353  0.10156678    -0.21600
C1038       C  0.71112895  0.19051107  0.13660433    -0.21600
C1039       C  0.80925969  0.29494842  0.85517806    -0.21600
C1040       C  0.83389935  0.32090960  0.89025896    -0.21600
C1041       C  0.65766748  0.17031757  0.91157145    -0.22700
C1042       C  0.67858769  0.19213888  0.86996267    -0.22700
C1043       C  0.80520362  0.32466903  0.12235260    -0.22700
C1044       C  0.82572134  0.34680142  0.08058059    -0.22700
C1045       C  0.66947008  0.16738348  0.00779813    -0.18000
C1046       C  0.75738678  0.25798258  0.13177442    -0.18000
C1047       C  0.83014886  0.33594877  0.98441915    -0.18000
C1048       C  0.74326863  0.24436872  0.86053241    -0.18000
H1049       H  0.66584924  0.13627449  0.11090427     0.14900
H1050       H  0.71378059  0.18547568  0.17804954     0.14900
H1051       H  0.81484890  0.29258579  0.81380362     0.14900
H1052       H  0.86212755  0.34242099  0.88121781     0.14900
H1053       H  0.63002506  0.14637635  0.90831380     0.13200
H1054       H  0.67019155  0.18842371  0.82879356     0.13100
H1055       H  0.80758386  0.33319737  0.16340100     0.13200
H1056       H  0.84712642  0.37577440  0.08319690     0.13100
H1057       H  0.72508293  0.24002361  0.03108610     0.26400
H1058       H  0.75901369  0.27726710  0.96137309     0.26400
N1059       N  0.72075648  0.21709278  0.43354714    -0.36400
N1060       N  0.79130863  0.28656362  0.44485264    -0.56900
N1061       N  0.78340833  0.27975915  0.55927653    -0.36400
N1062       N  0.71447702  0.20891786  0.54796366    -0.56900
C1063       C  0.73372820  0.22217360  0.38319125     0.27200
C1064       C  0.69259953  0.18147106  0.43761081     0.27200
C1065       C  0.81816264  0.30946820  0.55585519     0.27200
C1066       C  0.77828593  0.26747665  0.60988632     0.27200
C1067       C  0.78716984  0.28696689  0.39169316     0.35800
C1068       C  0.81951728  0.32059532  0.45839028     0.35800
C1069       C  0.68020817  0.18116110  0.53439943     0.35800
C1070       C  0.71383456  0.21344545  0.60102474     0.35800
C1071       C  0.71337948  0.18945379  0.35480112    -0.21600
C1072       C  0.68738402  0.16378179  0.38914346    -0.21600
C1073       C  0.83531165  0.31639740  0.60490892    -0.21600
C1074       C  0.81017229  0.28981411  0.63903526    -0.21600
C1075       C  0.81329871  0.32120226  0.37112102    -0.22700
C1076       C  0.83379500  0.34249038  0.41328965    -0.22700
C1077       C  0.65794080  0.16762311  0.57942352    -0.22700
C1078       C  0.67923186  0.18810108  0.62150293    -0.22700
C1079       C  0.76152218  0.25620707  0.36109524    -0.18000
C1080       C  0.66993507  0.16557961  0.48291999    -0.18000
C1081       C  0.74446413  0.23910599  0.63167142    -0.18000
C1082       C  0.83402290  0.33159188  0.51032884    -0.18000
H1083       H  0.71659240  0.18469006  0.31338547     0.14900
H1084       H  0.66670086  0.13550682  0.37923466     0.14900
H1085       H  0.86287841  0.33858212  0.61522192     0.14900
H1086       H  0.81457729  0.28776215  0.68089301     0.14900
H1087       H  0.81746706  0.32978693  0.32995857     0.13200
H1088       H  0.85683604  0.37074876  0.41089138     0.13100
H1089       H  0.62951116  0.14492841  0.58208524     0.13200
H1090       H  0.67034311  0.18452074  0.66255535     0.13100
H1091       H  0.72750116  0.23794282  0.46138633     0.26400
H1092       H  0.76287310  0.27140612  0.53067850     0.26400
C1093       C  0.73134654  0.26309795  0.77238299    -0.20100
C1094       C  0.74131041  0.24065922  0.80183778    -0.06600
C1095       C  0.75019834  0.21590240  0.77543096     0.14200
C1096       C  0.74992653  0.21490269  0.71975621    -0.20100
C1097       C  0.74067610  0.23793249  0.69034171    -0.06600
C1098       C  0.73073683  0.26185491  0.71681991     0.14200
C1099       C  0.71974403  0.28618188  0.68621651    -0.23500
H1100       H  0.72437635  0.28185746  0.79302146     0.15500
H1101       H  0.75767148  0.19674603  0.69903717     0.15600
C1102       C  0.76055745  0.19113353  0.80609777    -0.23400
H1103       H  0.71245448  0.30297573  0.71297930     0.05800
H1104       H  0.69507221  0.26854114  0.66128827     0.09000
H1105       H  0.74316165  0.30561728  0.66032595     0.09000
H1106       H  0.73695325  0.17215133  0.83208301     0.09000
H1107       H  0.78540539  0.20837343  0.83092909     0.09000
H1108       H  0.76720902  0.17383706  0.77937530     0.05700
C1109       C  0.78642269  0.25389096  0.21603760    -0.20100
C1110       C  0.75988586  0.26021453  0.19064522    -0.06600
C1111       C  0.73462092  0.26618068  0.22130395     0.14200
C1112       C  0.73684290  0.26624615  0.27681772    -0.20100
C1113       C  0.76307094  0.25948545  0.30224917    -0.06600
C1114       C  0.78792152  0.25288606  0.27162341     0.14200
C1115       C  0.81495950  0.24344282  0.29763023    -0.23500
H1116       H  0.80520481  0.24859497  0.19219127     0.15500
H1117       H  0.71738001  0.27054696  0.30064060     0.15600
C1118       C  0.70490060  0.27171145  0.19540221    -0.23400
H1119       H  0.83185768  0.23834434  0.26790846     0.05800
H1120       H  0.79942461  0.21786035  0.32199845     0.09000
H1121       H  0.83427797  0.26673995  0.32347278     0.09000
H1122       H  0.68611997  0.24670201  0.17183214     0.09000
H1123       H  0.71805268  0.29635477  0.16882575     0.09000
H1124       H  0.68761707  0.27622913  0.22515192     0.05700
C1125       C  0.73731787  0.46446798  0.72201187    -0.20100
C1126       C  0.76220712  0.00134644  0.69288784    -0.06600
C1127       C  0.76780213  0.03344785  0.72063905     0.14200
C1128       C  0.76820685  0.03328043  0.77607758    -0.20100
C1129       C  0.76281298  0.00179557  0.80417277    -0.06600
C1130       C  0.73634488  0.46232370  0.77748010     0.14200
C1131       C  0.71090002  0.42582882  0.80445839    -0.23500
H1132       H  0.71916586  0.44006830  0.69882486     0.15500
H1133       H  0.77177818  0.05752001  0.79766240     0.15600
C1134       C  0.77268503  0.06797581  0.69315673    -0.23400
H1135       H  0.69042645  0.42866364  0.82986098     0.05800
H1136       H  0.72764663  0.41749703  0.82943805     0.09000
H1137       H  0.74655028  0.91266225  0.77815489     0.09000
H1138       H  0.80573349  0.58829530  0.71344474     0.09000
H1139       H  0.77261582  0.06598857  0.64934174     0.09000
H1140       H  0.79970282  0.09222492  0.70498147     0.05700
C1141       C  0.75050718  0.53223139  0.22378716    -0.20100
C1142       C  0.73724835  0.00259744  0.19220710    -0.06600
C1143       C  0.71103829  0.97189034  0.22254313     0.14200
C1144       C  0.71268441  0.97403420  0.27809566    -0.20100
C1145       C  0.74007915  0.00585045  0.30408922    -0.06600
C1146       C  0.75039656  0.53246090  0.27943446     0.14200
C1147       C  0.76466088  0.56932314  0.30708344    -0.23500
H1148       H  0.76104227  0.55825110  0.20229328     0.15500
H1149       H  0.69318668  0.95019488  0.30141436     0.15600
C1150       C  0.68190338  0.93605389  0.19781799    -0.23400
H1151       H  0.79411388  0.58824725  0.29531720     0.05800
H1152       H  0.79433345  0.07193645  0.34237479     0.09000
H1153       H  0.74760167  0.58207043  0.29521069     0.09000
H1154       H  0.68559474  0.91269594  0.21211125     0.09000
H1155       H  0.71002326  0.43035809  0.15188152     0.09000
H1156       H  0.65372871  0.93074525  0.20958772     0.05700
C1157       C  0.96955323  0.24342557  0.71858969    -0.20100
C1158       C  0.00406988  0.26456059  0.69311667    -0.06600
C1159       C  0.54034589  0.29001252  0.72198683     0.14200
C1160       C  0.53700240  0.28910428  0.77746352    -0.20100
C1161       C  0.99961257  0.26176334  0.80445241    -0.06600
C1162       C  0.96695872  0.24164851  0.77407159     0.14200
C1163       C  0.92964529  0.21772954  0.80020914    -0.23500
H1164       H  0.94479463  0.22743710  0.69484828     0.15500
H1165       H  0.56090546  0.30721274  0.80152766     0.15600
C1166       C  0.57707794  0.31635200  0.69614334    -0.23400
H1167       H  0.90705813  0.20370936  0.77056245     0.05800
H1168       H  0.92257668  0.23516413  0.82592669     0.09000
H1169       H  0.93060384  0.19592744  0.82470365     0.09000
H1170       H  0.57348140  0.33548757  0.66907129     0.09000
H1171       H  0.58732810  0.30031555  0.67305866     0.09000
H1172       H  0.59860024  0.33340796  0.72590570     0.05700
C1173       C  0.52842743  0.24754013  0.21686693    -0.20100
C1174       C  0.99250560  0.23592372  0.19322440    -0.06600
C1175       C  0.96010890  0.22663668  0.22334748     0.14200
C1176       C  0.96175050  0.22596069  0.27890743    -0.20100
C1177       C  0.99514416  0.23479876  0.30478929    -0.06600
C1178       C  0.53096006  0.24868206  0.27238432     0.14200
C1179       C  0.56808571  0.26125424  0.29837521    -0.23500
H1180       H  0.55337670  0.25687358  0.19293344     0.15500
H1181       H  0.93731143  0.21983347  0.30241349     0.15600
C1182       C  0.92409665  0.21808026  0.19688510    -0.23400
H1183       H  0.59056116  0.26831714  0.26865109     0.05800
H1184       H  0.56632339  0.23862053  0.32404774     0.09000
H1185       H  0.57580819  0.28629791  0.32295172     0.09000
H1186       H  0.91507771  0.19386947  0.17000866     0.09000
H1187       H  0.92804108  0.24252968  0.17355490     0.09000
H1188       H  0.90148023  0.21125684  0.22628773     0.05700
N1189       N  0.50140728  0.71354429  0.05384501    -0.36400
N1190       N  0.99592521  0.77981278  0.06183571    -0.56900
N1191       N  0.50182915  0.79005859  0.95080631    -0.36400
N1192       N  0.50672178  0.72261414  0.93954604    -0.56900
C1193       C  0.99291495  0.71019805  0.10059821     0.27200
C1194       C  0.49773275  0.68037155  0.03894075     0.27200
C1195       C  0.99378609  0.81749926  0.96138755     0.27200
C1196       C  0.49566361  0.78367824  0.89808956     0.27200
C1197       C  0.00111382  0.77373160  0.11293935     0.35800
C1198       C  0.00032784  0.81441502  0.05970864     0.35800
C1199       C  0.51434116  0.69448308  0.94315741     0.35800
C1200       C  0.51338929  0.73448445  0.88878041     0.35800
C1201       C  0.98375463  0.67518802  0.11926328    -0.21600
C1202       C  0.48584918  0.65645577  0.08234559    -0.21600
C1203       C  0.98602881  0.83193666  0.91651942    -0.21600
C1204       C  0.48131683  0.80517728  0.87804351    -0.21600
C1205       C  0.00846857  0.80451872  0.14347851    -0.22700
C1206       C  0.00793300  0.83028691  0.10971525    -0.22700
C1207       C  0.52600614  0.68844337  0.89437776    -0.22700
C1208       C  0.52543897  0.71385102  0.85988643    -0.22700
C1209       C  0.99689909  0.73992887  0.13309315    -0.18000
C1210       C  0.50680442  0.67169677  0.98830231    -0.18000
C1211       C  0.50468235  0.76068183  0.86700106    -0.18000
C1212       C  0.99608887  0.83132884  0.01371867    -0.18000
H1213       H  0.97754784  0.66524713  0.15975678     0.14900
H1214       H  0.48108385  0.62830434  0.08437588     0.14900
H1215       H  0.97963156  0.85433320  0.91473293     0.14900
H1216       H  0.47384169  0.80661606  0.83737636     0.14900
H1217       H  0.01341042  0.80796639  0.18575318     0.13200
H1218       H  0.01257202  0.85756150  0.12070770     0.13100
H1219       H  0.53306643  0.66725129  0.88421263     0.13200
H1220       H  0.53198266  0.71607154  0.81797468     0.13100
H1221       H  0.51388397  0.73794453  0.03182815     0.26400
H1222       H  0.51634782  0.78122128  0.97477158     0.26400
N1223       N  0.00016880  0.71114631  0.44726416    -0.36400
N1224       N  0.00542346  0.72104506  0.56153507    -0.56900
N1225       N  0.00610180  0.79145248  0.54811993    -0.36400
N1226       N  0.99738104  0.77973728  0.43388265    -0.56900
C1227       C  0.99306501  0.67689877  0.46311504     0.27200
C1228       C  0.99151306  0.70895718  0.39512753     0.27200
C1229       C  0.00295148  0.78783303  0.60153911     0.27200
C1230       C  0.99813314  0.81836505  0.53438400     0.27200
C1231       C  0.01041252  0.69117263  0.55844461     0.35800
C1232       C  0.01415110  0.73408670  0.61155057     0.35800
C1233       C  0.99987540  0.77253083  0.38224564     0.35800
C1234       C  0.00032542  0.81376818  0.43568364     0.35800
C1235       C  0.97995599  0.65281762  0.42005489    -0.21600
C1236       C  0.97910662  0.67305228  0.37733544    -0.21800
C1237       C  0.99371408  0.81332372  0.62213169    -0.21600
C1238       C  0.99066743  0.83255055  0.57989487    -0.21600
C1239       C  0.02214671  0.68501628  0.60691985    -0.22700
C1240       C  0.02444545  0.71218190  0.64061160    -0.22700
C1241       C  0.00376740  0.80190853  0.35105888    -0.22700
C1242       C  0.00386453  0.82795782  0.38496002    -0.22700
C1243       C  0.00149891  0.66774550  0.51372378    -0.18000
C1244       C  0.99630756  0.73889239  0.36244006    -0.18000
C1245       C  0.99879956  0.83174818  0.48237667    -0.18000
C1246       C  0.00970408  0.76332549  0.63262844    -0.18000
H1247       H  0.97253402  0.62381792  0.41875729     0.14900
H1248       H  0.97060125  0.66254057  0.33752976     0.14900
H1249       H  0.98982076  0.81786043  0.66338320     0.14900
H1250       H  0.98381166  0.85460928  0.58256209     0.14900
H1251       H  0.02771046  0.66286115  0.61735979     0.13200
H1252       H  0.03221676  0.71509148  0.68200573     0.13100
H1253       H  0.00578529  0.80414595  0.30827056     0.13200
H1254       H  0.00626350  0.85429909  0.37359709     0.13100
H1255       H  0.01459150  0.73562403  0.46866994     0.26400
H1256       H  0.01663520  0.77892653  0.52317919     0.26400
O1257       O  0.95284803  0.51815234  0.95841917    -0.88100
C1258       C  0.53053396  0.56446166  0.08286066     0.87900
Mg1259     Mg  0.90966619  0.96085100  0.96559376     1.58100
O1260       O  0.56312269  0.54508960  0.96429937    -0.87800
O1261       O  0.49997039  0.55797170  0.91308628    -0.75200
C1262       C  0.99493522  0.86632063  0.01912319     0.93000
O1263       O  0.94228028  0.50052016  0.08404971    -0.75000
O1264       O  0.96387761  0.86491426  0.02763218    -0.82500
Mg1265     Mg  0.95939805  0.55061648  0.02831801     1.58000
C1266       C  0.62817246  0.49315731  0.98184774     0.92900
O1267       O  0.97263969  0.60328030  0.98243899    -0.80700
H1268       H  0.57614559  0.55373844  0.88721469    -0.06100
C1269       C  0.53563300  0.97082719  0.07699744     0.87800
O1270       O  0.94268301  0.94250691  0.91189851    -0.75200
O1271       O  0.51728993  0.56348982  0.03866798    -0.88000
O1272       O  0.62775000  0.52334570  0.98906031    -0.80800
C1273       C  0.63440161  0.62752685  0.02013111     0.93000
C1274       C  0.00245256  0.63404829  0.97532385     0.92900
Mg1275     Mg  0.53898145  0.95120982  0.96194247     1.58000
O1276       O  0.52380049  0.89606270  0.00348879    -0.80700
O1277       O  0.55682358  0.00189939  0.90693768    -0.75000
O1278       O  0.60395724  0.62759699  0.01325054    -0.80800
O1279       O  0.89945463  0.53674969  0.02248357    -0.82500
O1280       O  0.89420392  0.87105892  0.99239488    -0.80900
C1281       C  0.56645935  0.53434416  0.92004112     0.87300
O1282       O  0.98145888  0.93693552  0.96429408    -0.88000
O1283       O  0.54637143  0.98409738  0.03234296    -0.88100
O1284       O  0.99950927  0.94383429  0.08908004    -0.75200
Mg1285     Mg  0.55031388  0.58949352  0.96859733     1.58000
O1286       O  0.63544594  0.59767193  0.02731453    -0.82500
H1287       H  0.94537625  0.52120644  0.88065472    -0.06300
O1288       O  0.93421026  0.95404981  0.03759401    -0.87800
H1289       H  0.92213443  0.94696531  0.11505740    -0.06100
H1290       H  0.97810631  0.92476396  0.88709679    -0.06300
C1291       C  0.93151387  0.96574893  0.08151352     0.87300
C1292       C  0.96422342  0.53162741  0.91395644     0.87900
C1293       C  0.96780930  0.93396686  0.91995272     0.87900
H1294       H  0.55501406  0.98122170  0.10969086    -0.06200
O1295       O  0.55550326  0.55540710  0.08942812    -0.75300
Mg1296     Mg  0.94893218  0.91079236  0.03464267     1.58000
H1297       H  0.52014565  0.57253317  0.11686035    -0.06300
C1298       C  0.87034978  0.50512443  0.01849984     0.92900
O1299       O  0.86312950  0.90058456  0.97129698    -0.82500
C1300       C  0.86410640  0.87088945  0.98090181     0.93000
O1301       O  0.53779780  0.63670855  0.97631582    -0.82500
Mg1302     Mg  0.58860938  0.53783138  0.03415438     1.58200
O1303       O  0.86970216  0.97626868  0.00694883    -0.80800
O1304       O  0.59900179  0.96483015  0.96882627    -0.82500
O1305       O  0.54753536  0.98237185  0.46354384    -0.88100
C1306       C  0.96670037  0.93194018  0.58091158     0.87900
Mg1307     Mg  0.58960172  0.54140996  0.46984874     1.58100
O1308       O  0.93679219  0.95347918  0.46199139    -0.87800
O1309       O  0.00300581  0.94416339  0.41225128    -0.75200
C1310       C  0.00272126  0.63258548  0.51824710     0.93000
O1311       O  0.55740688  0.00195112  0.58802667    -0.75000
O1312       O  0.53039179  0.63360695  0.52720051    -0.82500
Mg1313     Mg  0.54083874  0.95091386  0.53474350     1.58000
C1314       C  0.86886380  0.49967743  0.48292941     0.92900
O1315       O  0.52743560  0.89650110  0.49374550    -0.80700
H1316       H  0.92701244  0.94705187  0.38405576    -0.06100
C1317       C  0.96567746  0.52981820  0.58169054     0.87800
O1318       O  0.55597495  0.55784247  0.41446667    -0.75200
O1319       O  0.98152763  0.93529512  0.53711421    -0.88000
O1320       O  0.87039809  0.97290787  0.48608241    -0.80800
C1321       C  0.86565042  0.86946840  0.51575902     0.93000
C1322       C  0.99720702  0.86654255  0.47848723     0.92900
Mg1323     Mg  0.95883042  0.54734940  0.46761009     1.58000
O1324       O  0.97275423  0.60169927  0.51163382    -0.80700
O1325       O  0.94145418  0.49695760  0.41251827    -0.75000
O1326       O  0.89606952  0.86993185  0.50542040    -0.80800
O1327       O  0.60093243  0.96549482  0.52777126    -0.82500
O1328       O  0.60053831  0.62967546  0.49133820    -0.80900
C1329       C  0.93493195  0.96541178  0.41793239     0.87300
O1330       O  0.51553692  0.56258047  0.46500881    -0.88000
O1331       O  0.95387261  0.51539031  0.53797373    -0.88100
O1332       O  0.49588286  0.55529040  0.58969255    -0.75200
Mg1333     Mg  0.95126921  0.91038774  0.46477633     1.58000
O1334       O  0.86403874  0.89886638  0.52440283    -0.82500
H1335       H  0.55688050  0.97822746  0.38667337    -0.06300
O1336       O  0.56277417  0.54707396  0.54014574    -0.87800
H1337       H  0.57215459  0.55378753  0.61816688    -0.06100
H1338       H  0.51943253  0.57333873  0.38725465    -0.06300
C1339       C  0.56448070  0.53531439  0.58443818     0.87300
C1340       C  0.53724816  0.96831988  0.41933918     0.87900
C1341       C  0.52986006  0.56525449  0.42103569     0.87900
H1342       H  0.94733426  0.51972997  0.61579440    -0.06200
O1343       O  0.94121322  0.94023126  0.58777180    -0.75300
Mg1344     Mg  0.54674070  0.58922972  0.53533021     1.58000
H1345       H  0.97623751  0.92260109  0.61435131    -0.06300
C1346       C  0.63083850  0.49796835  0.52218489     0.92900
O1347       O  0.63420163  0.60192276  0.47645682    -0.82500
C1348       C  0.63161901  0.63101811  0.48312088     0.93000
O1349       O  0.96607595  0.86473030  0.46979698    -0.82500
Mg1350     Mg  0.90939670  0.95861688  0.53198432     1.58200
O1351       O  0.63021465  0.52793911  0.51335127    -0.80800
O1352       O  0.89778895  0.53130207  0.47593969    -0.82500
N1353       N  0.78138474  0.50048665  0.06384703    -0.36400
N1354       N  0.71031347  0.49822553  0.05263034    -0.56900
N1355       N  0.71513422  0.49316850  0.93801933    -0.36400
N1356       N  0.78745395  0.49822328  0.94921997    -0.56900
C1357       C  0.77606180  0.50791561  0.11430725     0.27200
C1358       C  0.81748695  0.50923447  0.05918247     0.27200
C1359       C  0.68591581  0.49926709  0.94155994     0.27200
C1360       C  0.72730540  0.49997165  0.88724988     0.27200
C1361       C  0.71058269  0.49529795  0.10607391     0.35800
C1362       C  0.67599458  0.49213054  0.03944174     0.35800
C1363       C  0.81721650  0.49485815  0.96299711     0.35800
C1364       C  0.78253202  0.49135986  0.89663711     0.35800
C1365       C  0.80913057  0.52117502  0.14225204    -0.21600
C1366       C  0.83532658  0.52216586  0.10736805    -0.21600
C1367       C  0.67913644  0.50967092  0.89244851    -0.21600
C1368       C  0.70533802  0.51018912  0.85812079    -0.21600
C1369       C  0.67659960  0.48816232  0.12705580    -0.22700
C1370       C  0.65473092  0.48623488  0.08494397    -0.22700
C1371       C  0.83147798  0.48619353  0.91857068    -0.22700
C1372       C  0.80939474  0.48386428  0.87662421    -0.22700
C1373       C  0.74161515  0.50078989  0.13657628    -0.18000
C1374       C  0.83371220  0.50281782  0.01391095    -0.18000
C1375       C  0.75606857  0.49483155  0.86570160    -0.18000
C1376       C  0.66418948  0.49402388  0.98735109    -0.18000
H1377       H  0.81388472  0.52896833  0.18364725     0.14900
H1378       H  0.86400183  0.53067415  0.11682592     0.14900
H1379       H  0.65746141  0.51606190  0.88233230     0.14900
H1380       H  0.70764505  0.51689693  0.81630021     0.14900
H1381       H  0.66854277  0.48511784  0.16844217     0.13200
H1382       H  0.62648882  0.48139663  0.08762500     0.13100
H1383       H  0.85577417  0.48274911  0.91611190     0.13200
H1384       H  0.81318466  0.47814228  0.83586800     0.13100
H1385       H  0.76053966  0.48586115  0.03638113     0.26400
H1386       H  0.72334988  0.48086481  0.96687075     0.26400
N1387       N  0.77954548  0.49496743  0.43805103    -0.36400
N1388       N  0.71082894  0.49819509  0.45054218    -0.56900
N1389       N  0.71769538  0.49775634  0.56542153    -0.36400
N1390       N  0.78799756  0.49796108  0.55301701    -0.56900
C1391       C  0.77395254  0.50129970  0.38718935     0.27200
C1392       C  0.81496171  0.50132424  0.44147731     0.27200
C1393       C  0.68848263  0.50386200  0.56211486     0.27200
C1394       C  0.72976788  0.50434671  0.61607109     0.27200
C1395       C  0.71005032  0.49327103  0.39738849     0.35800
C1396       C  0.67715683  0.49369735  0.46460512     0.35800
C1397       C  0.81669072  0.49258413  0.53935306     0.35800
C1398       C  0.78409381  0.49378045  0.60626423     0.35800
C1399       C  0.80587958  0.51071915  0.35764540    -0.21600
C1400       C  0.83170609  0.51068849  0.39187554    -0.21600
C1401       C  0.68158257  0.51412035  0.61138887    -0.21600
C1402       C  0.70769805  0.51448712  0.64548803    -0.21600
C1403       C  0.67593684  0.48615358  0.37740292    -0.22700
C1404       C  0.65507277  0.48629209  0.41988519    -0.22700
C1405       C  0.83136086  0.48547584  0.58447878    -0.22700
C1406       C  0.81065391  0.48612371  0.62670927    -0.22700
C1407       C  0.74042056  0.49736245  0.36607563    -0.18000
C1408       C  0.83197801  0.49723035  0.48756980    -0.18000
C1409       C  0.75841894  0.49895634  0.63727610    -0.18000
C1410       C  0.66666191  0.49836396  0.51654155    -0.18000
H1411       H  0.81017630  0.51689143  0.31566580     0.14900
H1412       H  0.85958339  0.51671305  0.38126454     0.14900
H1413       H  0.65973824  0.52026485  0.62184289     0.14900
H1414       H  0.70979723  0.52092445  0.68737754     0.14900
H1415       H  0.66709865  0.48163657  0.33642079     0.13200
H1416       H  0.62698382  0.48191237  0.41789485     0.13100
H1417       H  0.85494262  0.48090376  0.58709978     0.13200
H1418       H  0.81508195  0.48205653  0.66787626     0.13100
H1419       H  0.75928764  0.48345569  0.46734802     0.26400
H1420       H  0.72595319  0.48552545  0.53652958     0.26400
N1421       N  0.71928506  0.71593082  0.06299586    -0.36400
N1422       N  0.71175638  0.70943988  0.94851364    -0.56900
N1423       N  0.77757313  0.78381201  0.93619473    -0.36400
N1424       N  0.78749840  0.78808868  0.05078499    -0.56900
C1425       C  0.69088030  0.68044942  0.05992477     0.27200
C1426       C  0.73102510  0.72208939  0.11375410     0.27200
C1427       C  0.77189080  0.77278970  0.88499583     0.27200
C1428       C  0.81157363  0.81478574  0.93904519     0.27200
C1429       C  0.67995554  0.67802706  0.96205832     0.35800
C1430       C  0.71132149  0.71279971  0.89518299     0.35800
C1431       C  0.78408783  0.78746234  0.10423078     0.35800
C1432       C  0.81515376  0.82258405  0.03762203     0.35800
C1433       C  0.68413267  0.66392417  0.10956546    -0.21600
C1434       C  0.70953682  0.69014964  0.14352252    -0.21600
C1435       C  0.80224963  0.79778767  0.85471999    -0.21600
C1436       C  0.82726003  0.82421878  0.88883852    -0.21600
C1437       C  0.65965713  0.66096881  0.91672076    -0.22700
C1438       C  0.67948902  0.68293096  0.87453715    -0.22700
C1439       C  0.81007986  0.82150159  0.12519967    -0.22700
C1440       C  0.82978011  0.84368163  0.08315023    -0.22700
C1441       C  0.66962760  0.66328080  0.01422674    -0.18000
C1442       C  0.75871894  0.75641622  0.13490655    -0.18000
C1443       C  0.82868113  0.83511491  0.98550536    -0.18000
C1444       C  0.73986995  0.74140455  0.86422720    -0.18000
H1445       H  0.66286872  0.63603113  0.12043975     0.14900
H1446       H  0.71148179  0.68628873  0.18560363     0.14900
H1447       H  0.80618072  0.79700856  0.81237320     0.14900
H1448       H  0.85404977  0.84759243  0.87790969     0.14900
H1449       H  0.63351803  0.63505968  0.91404879     0.13200
H1450       H  0.67152352  0.67731765  0.83327862     0.13100
H1451       H  0.81449340  0.82952231  0.16654270     0.13200
H1452       H  0.85230444  0.87216700  0.08586895     0.13100
H1453       H  0.72723766  0.73607419  0.03389651     0.26400
H1454       H  0.75805256  0.77272085  0.96642761     0.26400
N1455       N  0.71631956  0.71892977  0.43648049    -0.36400
N1456       N  0.78758399  0.78787524  0.44699710    -0.56900
N1457       N  0.77929039  0.78333808  0.56219877    -0.36400
N1458       N  0.71014652  0.71230598  0.55163774    -0.56900
C1459       C  0.72862106  0.72367126  0.38576049     0.27200
C1460       C  0.68763706  0.68360900  0.44095360     0.27200
C1461       C  0.81316924  0.81432372  0.55868266     0.27200
C1462       C  0.77288281  0.77356165  0.61392499     0.27200
C1463       C  0.78424698  0.78737093  0.39365195     0.35800
C1464       C  0.81705268  0.82130734  0.45961074     0.35800
C1465       C  0.67662447  0.68305653  0.53867365     0.35800
C1466       C  0.71011461  0.71619700  0.60492144     0.35800
C1467       C  0.70696287  0.69123865  0.35740340    -0.21600
C1468       C  0.68108672  0.66598585  0.39221031    -0.21600
C1469       C  0.82821386  0.82493545  0.60893019    -0.21600
C1470       C  0.80285871  0.79919346  0.64378746    -0.21600
C1471       C  0.81204096  0.82039014  0.37210606    -0.22700
C1472       C  0.83289709  0.84179252  0.41374463    -0.22700
C1473       C  0.65537775  0.66806568  0.58427360    -0.22700
C1474       C  0.67658439  0.68896061  0.62606153    -0.22700
C1475       C  0.75777106  0.75688482  0.36361708    -0.18000
C1476       C  0.66609638  0.66752422  0.48715647    -0.18000
C1477       C  0.74009782  0.74324001  0.63535223    -0.18000
C1478       C  0.83058430  0.83372664  0.51157885    -0.18000
H1479       H  0.70945994  0.68626043  0.31583516     0.14900
H1480       H  0.65976743  0.63791740  0.38250082     0.14900
H1481       H  0.85468939  0.84878828  0.61947195     0.14900
H1482       H  0.80605477  0.79962050  0.68640151     0.14900
H1483       H  0.81704926  0.82811811  0.33063662     0.13200
H1484       H  0.85696328  0.86938853  0.41050313     0.13100
H1485       H  0.62771513  0.64409941  0.58750092     0.13200
H1486       H  0.66825942  0.68449666  0.66736583     0.13100
H1487       H  0.72414968  0.73972285  0.46447228     0.26400
H1488       H  0.76059875  0.77134080  0.53179657     0.26400
C1489       C  0.72117825  0.75694141  0.77873192    -0.20100
C1490       C  0.73679371  0.73828846  0.80554805    -0.06600
C1491       C  0.75202975  0.71976242  0.77646233     0.14200
C1492       C  0.75181191  0.72080925  0.72084180    -0.20100
C1493       C  0.73692704  0.74019355  0.69407141    -0.06600
C1494       C  0.72117302  0.75818897  0.72317349     0.14200
C1495       C  0.70509399  0.77927563  0.69544489    -0.23500
H1496       H  0.70984361  0.77133425  0.80145942     0.15500
H1497       H  0.76407091  0.70728989  0.69809883     0.15600
C1498       C  0.76930748  0.69981411  0.80426381    -0.23400
H1499       H  0.69403191  0.79186244  0.72408331     0.05800
H1500       H  0.68188589  0.76014135  0.66929736     0.09000
H1501       H  0.72702064  0.80201176  0.67110559     0.09000
H1502       H  0.74812746  0.67738600  0.82981800     0.09000
H1503       H  0.79289436  0.71973211  0.82923301     0.09000
H1504       H  0.78015362  0.68700473  0.77564909     0.05700
C1505       C  0.78587815  0.75283908  0.22105711    -0.20100
C1506       C  0.76057969  0.75986462  0.19351062    -0.06600
C1507       C  0.73563613  0.76763159  0.22175041     0.14200
C1508       C  0.73594125  0.76733523  0.27728206    -0.20100
C1509       C  0.76065004  0.75949547  0.30490487    -0.06600
C1510       C  0.78622703  0.75260041  0.27667196     0.14200
C1511       C  0.81317848  0.74417467  0.30521373    -0.23500
H1512       H  0.80478271  0.74676233  0.19889467     0.15500
H1513       H  0.71645041  0.77261654  0.29936835     0.15600
C1514       C  0.70851756  0.77582135  0.19315946    -0.23400
H1515       H  0.83048258  0.73844663  0.27705689     0.05800
H1516       H  0.79760124  0.71933236  0.33093616     0.09000
H1517       H  0.83223997  0.76828563  0.33002852     0.09000
H1518       H  0.68933325  0.75151684  0.16871435     0.09000
H1519       H  0.72403019  0.80045205  0.16702477     0.09000
H1520       H  0.69138845  0.78183946  0.22125294     0.05700
C1521       C  0.75753664  0.97008494  0.72103843    -0.20100
C1522       C  0.76101238  0.49799856  0.69585610    -0.06600
C1523       C  0.78523576  0.52987425  0.72562099     0.14200
C1524       C  0.78388559  0.52777215  0.78110521    -0.20100
C1525       C  0.75923109  0.49457468  0.80715818    -0.06600
C1526       C  0.75754638  0.96986812  0.77659263     0.14200
C1527       C  0.75067158  0.93528341  0.80583620    -0.23500
H1528       H  0.75277842  0.94546896  0.69938216     0.15500
H1529       H  0.80157072  0.55236766  0.80427644     0.15600
C1530       C  0.81224364  0.56651428  0.70025500    -0.23400
H1531       H  0.72525055  0.92500205  0.83086826     0.05800
H1532       H  0.77489939  0.94162817  0.83145679     0.09000
H1533       H  0.69519741  0.40327596  0.77532596     0.09000
H1534       H  0.74974202  0.07317368  0.70515638     0.09000
H1535       H  0.81133982  0.56553788  0.65635388     0.09000
H1536       H  0.84107558  0.57462852  0.71262364     0.05700
C1537       C  0.76394293  0.03481004  0.21822603    -0.20100
C1538       C  0.73810971  0.49901650  0.19541064    -0.06600
C1539       C  0.72410819  0.46497327  0.22329753     0.14200
C1540       C  0.72427024  0.46524713  0.27892809    -0.20100
C1541       C  0.73766295  0.49858065  0.30732032    -0.06600
C1542       C  0.76571040  0.03689263  0.27371605     0.14200
C1543       C  0.79564703  0.07230431  0.29847391    -0.23500
H1544       H  0.78410986  0.05827847  0.19492116     0.15500
H1545       H  0.71441499  0.43930490  0.30039848     0.15600
C1546       C  0.70912617  0.42798041  0.19568909    -0.23400
H1547       H  0.82350480  0.07687798  0.28631124     0.05800
H1548       H  0.76346810  0.56681945  0.35088321     0.09000
H1549       H  0.79267785  0.09617728  0.28461687     0.09000
H1550       H  0.72572569  0.41469519  0.20734857     0.09000
H1551       H  0.68335085  0.93631161  0.15395166     0.09000
H1552       H  0.67962500  0.40953621  0.20772012     0.05700
C1553       C  0.97396545  0.74650372  0.71687049    -0.20100
C1554       C  0.00859439  0.76618695  0.69123555    -0.06600
C1555       C  0.53607795  0.78869272  0.72474020     0.14200
C1556       C  0.53510094  0.78842599  0.78046139    -0.20100
C1557       C  0.00404966  0.76594749  0.80257978    -0.06600
C1558       C  0.97132822  0.74596534  0.77229945     0.14200
C1559       C  0.93383984  0.72326517  0.79859423    -0.23500
H1560       H  0.94905392  0.73078444  0.69331000     0.15500
H1561       H  0.55970597  0.80751342  0.80255421     0.15600
C1562       C  0.57158974  0.81509130  0.69616445    -0.23400
H1563       H  0.91115451  0.70942330  0.76905082     0.05800
H1564       H  0.92753045  0.74156271  0.82361769     0.09000
H1565       H  0.93399962  0.70135081  0.82380724     0.09000
H1566       H  0.56662865  0.83368866  0.66985270     0.09000
H1567       H  0.58125828  0.79904544  0.67191613     0.09000
H1568       H  0.59416364  0.83272630  0.72426817     0.05700
C1569       C  0.52169471  0.73942714  0.22300140    -0.20100
C1570       C  0.99564506  0.73526638  0.19186345    -0.06600
C1571       C  0.96189134  0.72162523  0.22056816     0.14200
C1572       C  0.96254769  0.72140439  0.27625919    -0.20100
C1573       C  0.99620341  0.73455702  0.30375235    -0.06600
C1574       C  0.52248097  0.73856412  0.27857608     0.14200
C1575       C  0.55737998  0.74479022  0.30618222    -0.23500
H1576       H  0.54635734  0.74514833  0.20035630     0.15500
H1577       H  0.93692108  0.71205161  0.29856254     0.15600
C1578       C  0.92535635  0.70809729  0.19236123    -0.23400
H1579       H  0.57966422  0.74914057  0.27745585     0.05800
H1580       H  0.55110943  0.72012958  0.33087353     0.09000
H1581       H  0.56811225  0.76975494  0.33193448     0.09000
H1582       H  0.92011036  0.68456734  0.16585195     0.09000
H1583       H  0.92625971  0.73102999  0.16837537     0.09000
H1584       H  0.90164111  0.69826883  0.22068569     0.05700
loop_ 
_geom_bond_atom_site_label_1 
_geom_bond_atom_site_label_2 
_geom_bond_distance 
_geom_bond_site_symmetry_2 
_ccdc_geom_bond_type 
N1            C6   1.354       .  A
N1          C797   1.355       .  A
N1           H33   1.037   1_655  S
N2            C9   1.351       .  A
N2           C10   1.350       .  A
N3            C8   1.354       .  A
N3          C799   1.352       .  A
N3           H34   1.037   1_655  S
N4           C11   1.351       .  A
N4           C12   1.350       .  A
C5          N793   1.354       .  A
C5           C13   1.384       .  A
C5           C21   1.415       .  A
C6           C22   1.422   1_654  A
C6           C14   1.391       .  A
C7          N795   1.352       .  A
C7           C15   1.390       .  A
C7           C24   1.420   1_556  A
C8           C23   1.415       .  A
C8           C16   1.386       .  A
C9           C21   1.414       .  A
C9           C17   1.387       .  A
C10          C24   1.409       .  A
C10          C18   1.385       .  A
C11          C19   1.386       .  A
C11          C22   1.410       .  A
C12          C20   1.387       .  A
C12          C23   1.413   1_455  A
C13         C806   1.374       .  A
C13          H25   1.082       .  S
C14         C805   1.374       .  A
C14          H26   1.082       .  S
C15         C808   1.376       .  A
C15          H27   1.083       .  S
C16         C807   1.374       .  A
C16          H28   1.082       .  S
C17          C18   1.371       .  A
C17          H29   1.082       .  S
C18          H30   1.082       .  S
C19          C20   1.373       .  A
C19          H31   1.082       .  S
C20          H32   1.083       .  S
C21         C382   1.488       .  S
C22         C878   1.477       .  S
C23        C1161   1.486       .  S
C24          C74   1.472       .  S
N35          C40   1.355       .  A
N35          C39   1.354       .  A
N35          H67   1.036       .  S
N36          C43   1.350       .  A
N36          C44   1.349       .  A
N37          C42   1.352       .  A
N37          C41   1.354       .  A
N37          H68   1.038       .  S
N38          C45   1.350       .  A
N38          C46   1.350       .  A
C39          C47   1.391       .  A
C39          C55   1.422       .  A
C40          C56   1.416       .  A
C40          C48   1.384       .  A
C41          C49   1.386       .  A
C41          C58   1.413       .  A
C42          C57   1.416       .  A
C42          C50   1.390       .  A
C43          C55   1.411       .  A
C43          C51   1.387       .  A
C44          C58   1.410       .  A
C44          C52   1.386       .  A
C45          C53   1.388       .  A
C45          C56   1.413       .  A
C46          C54   1.385       .  A
C46          C57   1.407       .  A
C47          C48   1.374       .  A
C47          H59   1.081       .  S
C48          H60   1.082       .  S
C49          C50   1.373       .  A
C49          H61   1.082       .  S
C50          H62   1.083       .  S
C51          C52   1.373       .  A
C51          H63   1.082       .  S
C52          H64   1.083       .  S
C53          C54   1.374       .  A
C53          H65   1.082       .  S
C54          H66   1.083       .  S
C55         C122   1.477       .  S
C56         C385   1.487       .  S
C57         C134   1.470       .  S
C58         C366   1.484       .  S
O69         C104   1.235       .  S
O69         Mg77   2.146   1_556  S
O69        Mg467   2.146   1_545  S
C70         H109   1.081       .  S
C70          O83   1.234       .  S
C70         O107   1.270       .  A
Mg71        O100   2.154   1_556  S
Mg71        O465   2.155       .  S
Mg71        O115   2.292   1_556  S
Mg71        O111   2.265       .  S
Mg71         O82   2.309       .  S
O72          C93   1.234       .  S
O72        Mg114   2.158   1_556  S
O72         Mg97   2.154       .  S
O73         C896   1.271       .  A
O73         Mg97   2.309   1_655  S
C74          O76   1.269       .  A
C74         O880   1.272       .  A
O75         C499   1.271   1_545  A
O75         Mg77   2.302       .  S
O76        Mg108   2.254       .  S
Mg77        O875   2.151       .  S
Mg77         O91   2.259       .  S
Mg77         O79   2.280   1_554  S
C78         C188   1.477       .  S
C78          O84   1.273   1_565  A
C78         O512   1.269       .  A
O79          C86   1.270       .  A
H80          C93   1.081       .  S
C81         H106   1.081       .  S
C81          O95   1.233       .  S
C81         O888   1.267       .  A
O82         C105   1.270       .  A
O83         Mg97   2.151   1_554  S
O83        Mg869   2.154   1_455  S
O84        Mg114   2.293   1_556  S
C85         C253   1.483       .  S
C85          O98   1.271       .  A
C85          O90   1.273       .  A
C86         C814   1.472       .  S
C86         O905   1.268       .  A
Mg87         O95   2.158   1_556  S
Mg87        O886   2.160   1_455  S
Mg87         O88   2.296   1_556  S
Mg87         O89   2.307       .  S
Mg87        O116   2.264       .  S
O88         C866   1.273   1_455  A
O89         C489   1.270       .  A
O90         Mg97   2.296   1_554  S
O91         C110   1.269       .  A
O92         C112   1.272       .  A
O92        Mg108   2.298   1_556  S
C93         O485   1.269       .  A
O94         C105   1.235       .  S
O94        Mg108   2.170   1_556  S
O94        Mg879   2.167       .  S
O95        Mg510   2.151       .  S
O96         C873   1.269       .  A
O96        Mg108   2.303       .  S
Mg97        O113   2.263       .  S
O98        Mg114   2.277       .  S
H99         C104   1.081       .  S
O100        C103   1.234       .  S
O100       Mg108   2.152       .  S
H101        C103   1.081       .  S
H102        C105   1.081       .  S
C103        O471   1.270       .  A
C104        O865   1.270       .  A
O107       Mg114   2.309       .  S
C110        C186   1.476       .  S
C110        O511   1.272   1_545  A
O111        C112   1.269       .  A
C112        C255   1.479       .  S
O113        C878   1.270       .  A
Mg114       O491   2.160   1_545  S
O115        C506   1.272       .  A
O116        C474   1.271       .  A
O117        C152   1.233       .  S
O117       Mg125   2.151       .  S
O117       Mg515   2.138       .  S
C118        H157   1.081       .  S
C118        O131   1.235       .  S
C118        O155   1.269       .  A
Mg119       O148   2.156       .  S
Mg119       O513   2.154   1_545  S
Mg119       O163   2.294       .  S
Mg119       O159   2.267       .  S
Mg119       O130   2.303       .  S
O120        C141   1.234       .  S
O120       Mg162   2.152       .  S
O120       Mg145   2.135       .  S
O121        C944   1.268       .  A
O121       Mg145   2.298       .  S
C122        O136   1.274       .  A
C122        O916   1.267       .  A
O123        C547   1.270       .  A
O123       Mg125   2.303       .  S
O124        C914   1.270       .  A
O124       Mg156   2.266       .  S
Mg125       O923   2.150   1_455  S
Mg125       O139   2.247       .  S
Mg125       O127   2.280       .  S
C126        C220   1.483       .  S
C126        O164   1.271       .  A
C126        O528   1.273   1_545  A
O127        C926   1.270       .  A
H128        C141   1.081       .  S
C129        H154   1.081       .  S
C129        O143   1.234       .  S
C129        O936   1.270       .  A
O130        C153   1.269       .  A
O131       Mg145   2.171       .  S
O131       Mg917   2.154       .  S
O132        C522   1.270       .  A
O132       Mg162   2.280       .  S
C133        C290   1.476       .  S
C133        O146   1.269       .  A
C133        O138   1.272       .  A
C134        O161   1.269       .  A
C134        O919   1.271       .  A
Mg135       O143   2.152       .  S
Mg135       O934   2.160       .  S
Mg135       O136   2.304       .  S
Mg135       O137   2.311   1_545  S
Mg135       O164   2.274       .  S
O137        C537   1.271       .  A
O138       Mg145   2.297       .  S
O139        C554   1.268       .  A
O140        C160   1.273       .  A
O140       Mg156   2.299       .  S
C141        O533   1.269       .  A
O142        C153   1.234       .  S
O142       Mg156   2.148       .  S
O142       Mg927   2.149   1_455  S
O143       Mg558   2.158   1_545  S
O144        C921   1.271       .  A
O144       Mg156   2.307   1_655  S
Mg145       O161   2.249       .  S
O146       Mg162   2.256       .  S
H147        C152   1.081       .  S
O148        C151   1.235       .  S
O148       Mg156   2.152       .  S
H149        C151   1.081       .  S
H150        C153   1.081       .  S
C151        O519   1.270       .  A
C152        O913   1.268       .  A
O155       Mg162   2.300       .  S
C158        C222   1.473       .  S
C158        O163   1.273   1_565  A
C158        O535   1.268       .  A
O159        C160   1.271       .  A
C160        C288   1.480       .  S
Mg162       O539   2.151       .  S
N165        C170   1.352       .  A
N165        C169   1.351       .  A
N165        H197   1.036   1_545  S
N166        C173   1.355       .  A
N166        C174   1.352       .  A
N167        C172   1.353       .  A
N167        C171   1.353       .  A
N167        H198   1.034       .  S
N168        C175   1.353       .  A
N168        C176   1.354       .  A
C169        C177   1.388       .  A
C169        C185   1.415       .  A
C170        C186   1.413       .  A
C170        C178   1.387       .  A
C171        C179   1.386       .  A
C171        C188   1.413       .  A
C172        C187   1.418       .  A
C172        C180   1.389       .  A
C173        C185   1.415   1_565  A
C173        C181   1.384       .  A
C174        C188   1.420   1_554  A
C174        C182   1.389       .  A
C175        C183   1.390       .  A
C175        C186   1.421   1_566  A
C176        C184   1.384       .  A
C176        C187   1.415       .  A
C177        C178   1.376       .  A
C177        H189   1.083       .  S
C178        H190   1.082       .  S
C179        C180   1.375       .  A
C179        H191   1.082   1_565  S
C180        H192   1.083   1_565  S
C181        C182   1.372       .  A
C181        H193   1.082       .  S
C182        H194   1.083       .  S
C183        C184   1.371       .  A
C183        H195   1.082       .  S
C184        H196   1.082       .  S
C185        C350   1.489       .  S
C187        C337   1.490       .  S
N199        C204   1.353       .  A
N199        C203   1.352       .  A
N199        H231   1.038   1_545  S
N200        C207   1.352       .  A
N200        C208   1.351       .  A
N201        C206   1.351       .  A
N201        C205   1.352       .  A
N201        H232   1.038       .  S
N202        C209   1.354       .  A
N202        C210   1.354       .  A
C203        C211   1.387       .  A
C203        C219   1.414       .  A
C204        C220   1.413       .  A
C204        C212   1.387       .  A
C205        C213   1.385   1_565  A
C205        C222   1.408       .  A
C206        C221   1.415       .  A
C206        C214   1.389   1_565  A
C207        C219   1.412   1_565  A
C207        C215   1.385       .  A
C208        C222   1.415       .  A
C208        C216   1.388       .  A
C209        C217   1.389       .  A
C209        C220   1.422   1_565  A
C210        C218   1.384       .  A
C210        C221   1.415       .  A
C211        C212   1.376       .  A
C211        H223   1.082       .  S
C212        H224   1.082       .  S
C213        C214   1.375       .  A
C213        H225   1.083       .  S
C214        H226   1.082       .  S
C215        C216   1.374       .  A
C215        H227   1.082       .  S
C216        H228   1.083       .  S
C217        C218   1.373       .  A
C217        H229   1.082       .  S
C218        H230   1.082       .  S
C219        C353   1.487       .  S
C221        C334   1.487       .  S
N233        C238   1.351       .  A
N233        C237   1.353       .  A
N233        H265   1.039       .  S
N234        C241   1.354       .  A
N234        C242   1.354       .  A
N235        C240   1.353       .  A
N235        C239   1.352       .  A
N235        H266   1.036       .  S
N236        C243   1.354       .  A
N236        C244   1.353       .  A
C237        C245   1.386       .  A
C237        C253   1.411       .  A
C238        C254   1.415       .  A
C238        C246   1.388       .  A
C239        C247   1.389       .  A
C239        C256   1.417       .  A
C240        C255   1.413       .  A
C240        C248   1.386       .  A
C241        C253   1.420   1_556  A
C241        C249   1.389       .  A
C242        C256   1.416       .  A
C242        C250   1.385       .  A
C243        C251   1.385       .  A
C243        C254   1.415       .  A
C244        C252   1.389       .  A
C244        C255   1.420   1_554  A
C245        C246   1.376       .  A
C245        H257   1.082       .  S
C246        H258   1.082       .  S
C247        C248   1.376       .  A
C247        H259   1.083       .  S
C248        H260   1.083       .  S
C249        C250   1.373       .  A
C249        H261   1.082       .  S
C250        H262   1.082       .  S
C251        C252   1.374       .  A
C251        H263   1.082       .  S
C252        H264   1.083       .  S
C254        C318   1.489       .  S
C256        C302   1.489       .  S
N267        C272   1.353       .  A
N267        C271   1.352       .  A
N267        H299   1.039       .  S
N268        C275   1.353       .  A
N268        C276   1.352       .  A
N269        C274   1.351       .  A
N269        C273   1.352       .  A
N269        H300   1.039       .  S
N270        C277   1.352       .  A
N270        C278   1.353       .  A
C271        C279   1.387       .  A
C271        C287   1.415       .  A
C272        C288   1.415       .  A
C272        C280   1.388       .  A
C273        C281   1.385       .  A
C273        C290   1.409       .  A
C274        C289   1.414       .  A
C274        C282   1.389       .  A
C275        C287   1.413       .  A
C275        C283   1.385       .  A
C276        C290   1.416       .  A
C276        C284   1.388       .  A
C277        C285   1.390       .  A
C277        C288   1.421       .  A
C278        C286   1.384       .  A
C278        C289   1.413       .  A
C279        C280   1.378       .  A
C279        H291   1.083       .  S
C280        H292   1.082       .  S
C281        C282   1.376       .  A
C281        H293   1.082       .  S
C282        H294   1.082       .  S
C283        C284   1.373       .  A
C283        H295   1.082       .  S
C284        H296   1.083       .  S
C285        C286   1.373       .  A
C285        H297   1.082       .  S
C286        H298   1.082       .  S
C287        C321   1.490       .  S
C289        C305   1.488       .  S
C301        C302   1.402       .  A
C301        C306   1.403       .  A
C301        H308   1.084       .  S
C302        C303   1.413       .  A
C303        C304   1.405       .  A
C303        C310   1.506       .  S
C304        C305   1.403       .  A
C304        H309   1.084       .  S
C305        C306   1.411       .  A
C306        C307   1.506       .  S
C307        H311   1.111       .  S
C307        H312   1.110       .  S
C307        H313   1.110       .  S
C310        H314   1.110       .  S
C310        H315   1.110       .  S
C310        H316   1.111       .  S
C317        C318   1.403       .  A
C317        C322   1.406       .  A
C317        H324   1.084       .  S
C318        C319   1.412       .  A
C319        C320   1.402       .  A
C319        C326   1.506       .  S
C320        C321   1.402       .  A
C320        H325   1.084       .  S
C321        C322   1.414       .  A
C322        C323   1.506       .  S
C323        H327   1.111       .  S
C323        H328   1.110       .  S
C323        H329   1.109       .  S
C326        H330   1.109       .  S
C326        H331   1.110       .  S
C326        H332   1.111       .  S
C333        C338   1.401       .  A
C333        C730   1.402       .  A
C333        H340   1.084       .  S
C334        C335   1.414   1_565  A
C334        C729   1.403       .  A
C335        C336   1.402       .  A
C335        C342   1.507       .  S
C336        C337   1.402   1_545  A
C336        H341   1.084       .  S
C337        C734   1.412       .  A
C338        C733   1.413       .  A
C338        C339   1.508       .  S
C339        H343   1.109       .  S
C339        H344   1.110       .  S
C339        H741   1.111       .  S
C342        H347   1.108       .  S
C342        H348   1.110       .  S
C342        H742   1.110       .  S
H345        C735   1.111       .  S
H346        C738   1.110       .  S
C349        C354   1.405       .  A
C349        C746   1.403       .  A
C349        H356   1.084       .  S
C350        C351   1.415   1_545  A
C350        C745   1.403       .  A
C351        C352   1.402       .  A
C351        C358   1.507       .  S
C352        C353   1.401   1_565  A
C352        H357   1.085       .  S
C353        C750   1.414       .  A
C354        C749   1.416       .  A
C354        C355   1.507       .  S
C355        H359   1.110       .  S
C355        H361   1.110       .  S
C355        H756   1.108       .  S
C358        H362   1.110       .  S
C358        H364   1.110       .  S
C358        H759   1.108       .  S
H360        C751   1.108       .  S
H363        C754   1.108       .  S
C365        C366   1.401       .  A
C365        C370   1.400       .  A
C365        H372   1.084       .  S
C366       C1159   1.411       .  A
C367        C368   1.403       .  A
C367       C1158   1.411       .  A
C367        C374   1.505       .  S
C368       C1161   1.402   1_455  A
C368        H373   1.084       .  S
C369        C370   1.412       .  A
C369       C1160   1.403       .  A
C369        C815   1.485       .  S
C370        C371   1.506       .  S
C371        H375   1.111       .  S
C371        H376   1.110       .  S
C371        H377   1.110       .  S
C374        H378   1.110       .  S
C374        H379   1.110       .  S
C374        H380   1.111       .  S
C381        C386   1.403       .  A
C381       C1174   1.402   1_455  A
C381        H388   1.084       .  S
C382        C383   1.412       .  A
C382       C1173   1.402       .  A
C383        C384   1.404       .  A
C383        C390   1.506       .  S
C384        C385   1.403       .  A
C384        H389   1.084       .  S
C385       C1178   1.411       .  A
C386       C1177   1.412   1_455  A
C386        C387   1.506       .  S
C387        H391   1.111       .  S
C387        H392   1.110       .  S
C387        H393   1.110       .  S
C390        H394   1.111       .  S
C390        H395   1.110       .  S
C390        H396   1.111       .  S
N397        C402   1.354       .  A
N397       C1193   1.356       .  A
N397        H429   1.036   1_655  S
N398        C405   1.351       .  A
N398        C406   1.352       .  A
N399        C404   1.355   1_455  A
N399       C1195   1.354   1_455  A
N399        H430   1.035       .  S
N400        C407   1.351       .  A
N400        C408   1.350       .  A
C401       N1189   1.355       .  A
C401        C409   1.385       .  A
C401        C417   1.417       .  A
C402        C418   1.424   1_654  A
C402        C410   1.391       .  A
C403       N1191   1.353       .  A
C403        C411   1.388       .  A
C403        C420   1.417   1_556  A
C404        C419   1.418   1_655  A
C404        C412   1.386       .  A
C405        C417   1.416       .  A
C405        C413   1.388       .  A
C406        C420   1.409       .  A
C406        C414   1.384       .  A
C407        C415   1.386       .  A
C407        C418   1.411       .  A
C408        C416   1.388       .  A
C408        C419   1.414       .  A
C409       C1202   1.374       .  A
C409        H421   1.082       .  S
C410       C1201   1.375       .  A
C410        H422   1.082       .  S
C411       C1204   1.376       .  A
C411        H423   1.083       .  S
C412       C1203   1.376       .  A
C412        H424   1.083       .  S
C413        C414   1.374       .  A
C413        H425   1.082       .  S
C414        H426   1.082       .  S
C415        C416   1.371       .  A
C415        H427   1.082       .  S
C416        H428   1.083       .  S
C417        C778   1.490       .  S
C418       C1274   1.477       .  S
C419       C1557   1.487       .  S
C420        C470   1.479       .  S
N431        C436   1.355       .  A
N431        C435   1.354       .  A
N431        H463   1.037       .  S
N432        C439   1.351       .  A
N432        C440   1.350       .  A
N433        C438   1.354       .  A
N433        C437   1.356       .  A
N433        H464   1.037       .  S
N434        C441   1.350       .  A
N434        C442   1.350       .  A
C435        C443   1.391       .  A
C435        C451   1.422       .  A
C436        C452   1.415       .  A
C436        C444   1.384       .  A
C437        C445   1.386       .  A
C437        C454   1.416       .  A
C438        C453   1.420       .  A
C438        C446   1.389       .  A
C439        C451   1.411       .  A
C439        C447   1.386       .  A
C440        C454   1.413       .  A
C440        C448   1.387       .  A
C441        C449   1.387       .  A
C441        C452   1.412       .  A
C442        C450   1.385       .  A
C442        C453   1.407       .  A
C443        C444   1.376       .  A
C443        H455   1.081       .  S
C444        H456   1.082       .  S
C445        C446   1.376       .  A
C445        H457   1.082       .  S
C446        H458   1.083       .  S
C447        C448   1.372       .  A
C447        H459   1.082       .  S
C448        H460   1.083       .  S
C449        C450   1.373       .  A
C449        H461   1.083       .  S
C450        H462   1.082       .  S
C451        C518   1.478       .  S
C452        C781   1.489       .  S
C453        C530   1.475       .  S
C454        C762   1.490       .  S
O465        C500   1.234       .  S
O465       Mg473   2.155   1_556  S
C466        H505   1.081       .  S
C466        O479   1.234       .  S
C466        O503   1.268       .  A
Mg467       O496   2.152   1_556  S
Mg467       O511   2.293   1_556  S
Mg467       O507   2.264       .  S
Mg467       O478   2.301       .  S
O468        C489   1.235       .  S
O468       Mg510   2.159   1_556  S
O468       Mg493   2.152       .  S
O469       C1292   1.270       .  A
O469       Mg493   2.306   1_655  S
C470        O472   1.269       .  A
C470       O1276   1.273       .  A
O471       Mg473   2.309       .  S
O472       Mg504   2.262       .  S
Mg473      O1271   2.157       .  S
Mg473       O487   2.267       .  S
Mg473       O475   2.298   1_554  S
C474        C584   1.472       .  S
C474        O480   1.271       .  A
O475        C482   1.273       .  A
H476        C489   1.081       .  S
C477        H502   1.081       .  S
C477        O491   1.235       .  S
C477       O1284   1.270   1_455  A
O478        C501   1.270       .  A
O479      Mg1265   2.150   1_455  S
O479       Mg493   2.156   1_554  S
O480       Mg510   2.280   1_556  S
C481        C649   1.480       .  S
C481        O494   1.271       .  A
C481        O486   1.273       .  A
C482       C1210   1.482       .  S
C482       O1301   1.269       .  A
Mg483      O1282   2.151   1_455  S
Mg483       O491   2.170   1_556  S
Mg483       O484   2.284   1_556  S
Mg483       O485   2.299   1_565  S
Mg483       O512   2.257       .  S
O484       C1262   1.271   1_455  A
O486       Mg493   2.292   1_554  S
O487        C506   1.270       .  A
O488        C508   1.273       .  A
O488       Mg504   2.300   1_556  S
O490        C501   1.235       .  S
O490      Mg1275   2.155       .  S
O490       Mg504   2.175   1_556  S
O492       C1269   1.269       .  A
O492       Mg504   2.300       .  S
Mg493       O509   2.265       .  S
O494       Mg510   2.269       .  S
H495        C500   1.081       .  S
O496        C499   1.236       .  S
O496       Mg504   2.144       .  S
H497        C499   1.081       .  S
H498        C501   1.081       .  S
C500       O1261   1.270       .  A
O503       Mg510   2.297       .  S
C506        C582   1.479       .  S
O507        C508   1.270       .  A
C508        C651   1.479       .  S
O509       C1274   1.270       .  A
O513        C548   1.233       .  S
O513       Mg521   2.158       .  S
C514        H553   1.081       .  S
C514        O527   1.234       .  S
C514        O551   1.269       .  A
Mg515       O544   2.158       .  S
Mg515       O559   2.281       .  S
Mg515       O555   2.248       .  S
Mg515       O526   2.305       .  S
O516        C537   1.235       .  S
O516       Mg558   2.160       .  S
O516       Mg541   2.162       .  S
O517       C1340   1.267       .  A
O517       Mg541   2.297       .  S
C518       O1312   1.270       .  A
C518        O532   1.271       .  A
O519       Mg521   2.306   1_545  S
O520       C1310   1.270       .  A
O520       Mg552   2.260       .  S
Mg521      O1319   2.149   1_455  S
Mg521       O535   2.247       .  S
Mg521       O523   2.292       .  S
C522        C616   1.469       .  S
C522        O560   1.268       .  A
O523       C1322   1.272   1_455  A
H524        C537   1.081       .  S
C525        H550   1.081       .  S
C525        O539   1.235       .  S
C525       O1332   1.270       .  A
O526        C549   1.270       .  A
O527      Mg1313   2.150       .  S
O527       Mg541   2.169       .  S
O528       Mg558   2.297       .  S
C529        C686   1.477       .  S
C529        O542   1.270       .  A
C529        O534   1.272       .  A
C530       O1315   1.271       .  A
C530        O557   1.271       .  A
Mg531      O1330   2.145       .  S
Mg531       O539   2.153       .  S
Mg531       O532   2.292       .  S
Mg531       O533   2.301       .  S
Mg531       O560   2.245       .  S
O534       Mg541   2.292       .  S
O536        C556   1.275       .  A
O536       Mg552   2.311       .  S
O538        C549   1.235       .  S
O538      Mg1323   2.169   1_455  S
O538       Mg552   2.163       .  S
O540       C1317   1.271       .  A
O540       Mg552   2.311   1_655  S
Mg541       O557   2.267       .  S
O542       Mg558   2.265       .  S
H543        C548   1.081       .  S
O544        C547   1.235       .  S
O544       Mg552   2.148       .  S
H545        C547   1.081       .  S
H546        C549   1.081       .  S
C548       O1309   1.268       .  A
O551       Mg558   2.301       .  S
C554        C618   1.469       .  S
C554        O559   1.269       .  A
O555        C556   1.267       .  A
C556        C684   1.481       .  S
N561        C566   1.353       .  A
N561        C565   1.351       .  A
N561        H593   1.039       .  S
N562        C569   1.353       .  A
N562        C570   1.352       .  A
N563        C568   1.350       .  A
N563        C567   1.351       .  A
N563        H594   1.040       .  S
N564        C571   1.352       .  A
N564        C572   1.353       .  A
C565        C573   1.388       .  A
C565        C581   1.414       .  A
C566        C582   1.412       .  A
C566        C574   1.386       .  A
C567        C575   1.386       .  A
C567        C584   1.406       .  A
C568        C583   1.410       .  A
C568        C576   1.388       .  A
C569        C581   1.414       .  A
C569        C577   1.385       .  A
C570        C584   1.416   1_554  A
C570        C578   1.388       .  A
C571        C579   1.390       .  A
C571        C582   1.419   1_556  A
C572        C580   1.384       .  A
C572        C583   1.412       .  A
C573        C574   1.376       .  A
C573        H585   1.082       .  S
C574        H586   1.082       .  S
C575        C576   1.375       .  A
C575        H587   1.082       .  S
C576        H588   1.083       .  S
C577        C578   1.375       .  A
C577        H589   1.082       .  S
C578        H590   1.083       .  S
C579        C580   1.374       .  A
C579        H591   1.082       .  S
C580        H592   1.082       .  S
C581        C746   1.487       .  S
C583        C733   1.486       .  S
N595        C600   1.352       .  A
N595        C599   1.353       .  A
N595        H627   1.036       .  S
N596        C603   1.353       .  A
N596        C604   1.351       .  A
N597        C602   1.352       .  A
N597        C601   1.350       .  A
N597        H628   1.038       .  S
N598        C605   1.349       .  A
N598        C606   1.353       .  A
C599        C607   1.387       .  A
C599        C615   1.416       .  A
C600        C616   1.414       .  A
C600        C608   1.387       .  A
C601        C609   1.385       .  A
C601        C618   1.406       .  A
C602        C617   1.411       .  A
C602        C610   1.388       .  A
C603        C615   1.414       .  A
C603        C611   1.385       .  A
C604        C618   1.417       .  A
C604        C612   1.389       .  A
C605        C613   1.392       .  A
C605        C616   1.418       .  A
C606        C614   1.383       .  A
C606        C617   1.410       .  A
C607        C608   1.376       .  A
C607        H619   1.083       .  S
C608        H620   1.082       .  S
C609        C610   1.374       .  A
C609        H621   1.082       .  S
C610        H622   1.083       .  S
C611        C612   1.372       .  A
C611        H623   1.082       .  S
C612        H624   1.083       .  S
C613        C614   1.370       .  A
C613        H625   1.082       .  S
C614        H626   1.082       .  S
C615        C749   1.490       .  S
C617        C730   1.486       .  S
N629        C634   1.351       .  A
N629        C633   1.353       .  A
N629        H661   1.034       .  S
N630        C637   1.354       .  A
N630        C638   1.354       .  A
N631        C636   1.354       .  A
N631        C635   1.352       .  A
N631        H662   1.034       .  S
N632        C639   1.354       .  A
N632        C640   1.353       .  A
C633        C641   1.386       .  A
C633        C649   1.414       .  A
C634        C650   1.417       .  A
C634        C642   1.388       .  A
C635        C643   1.389       .  A
C635        C652   1.418       .  A
C636        C651   1.414       .  A
C636        C644   1.386       .  A
C637        C649   1.422   1_556  A
C637        C645   1.389       .  A
C638        C652   1.417       .  A
C638        C646   1.385       .  A
C639        C647   1.385       .  A
C639        C650   1.416       .  A
C640        C648   1.388       .  A
C640        C651   1.420   1_554  A
C641        C642   1.375       .  A
C641        H653   1.082       .  S
C642        H654   1.082       .  S
C643        C644   1.376       .  A
C643        H655   1.083       .  S
C644        H656   1.082       .  S
C645        C646   1.371       .  A
C645        H657   1.082       .  S
C646        H658   1.082       .  S
C647        C648   1.371       .  A
C647        H659   1.082       .  S
C648        H660   1.083       .  S
C650        C714   1.488       .  S
C652        C698   1.487       .  S
N663        C668   1.353       .  A
N663        C667   1.350       .  A
N663        H695   1.038       .  S
N664        C671   1.352       .  A
N664        C672   1.352       .  A
N665        C670   1.350       .  A
N665        C669   1.352       .  A
N665        H696   1.039       .  S
N666        C673   1.353       .  A
N666        C674   1.353       .  A
C667        C675   1.388       .  A
C667        C683   1.414       .  A
C668        C684   1.413       .  A
C668        C676   1.387       .  A
C669        C677   1.385       .  A
C669        C686   1.408       .  A
C670        C685   1.413       .  A
C670        C678   1.389       .  A
C671        C683   1.414       .  A
C671        C679   1.385       .  A
C672        C686   1.416       .  A
C672        C680   1.387       .  A
C673        C681   1.389       .  A
C673        C684   1.420       .  A
C674        C682   1.384       .  A
C674        C685   1.413       .  A
C675        C676   1.377       .  A
C675        H687   1.083       .  S
C676        H688   1.082       .  S
C677        C678   1.375       .  A
C677        H689   1.082       .  S
C678        H690   1.082       .  S
C679        C680   1.374       .  A
C679        H691   1.082       .  S
C680        H692   1.083       .  S
C681        C682   1.372       .  A
C681        H693   1.082       .  S
C682        H694   1.082       .  S
C683        C717   1.485       .  S
C685        C701   1.484       .  S
C697        C698   1.402       .  A
C697        C702   1.403       .  A
C697        H704   1.084       .  S
C698        C699   1.412       .  A
C699        C700   1.402       .  A
C699        C706   1.505       .  S
C700        C701   1.401       .  A
C700        H705   1.084       .  S
C701        C702   1.411       .  A
C702        C703   1.506       .  S
C703        H707   1.111       .  S
C703        H708   1.110       .  S
C703        H709   1.110       .  S
C706        H710   1.110       .  S
C706        H711   1.110       .  S
C706        H712   1.111       .  S
C713        C714   1.403       .  A
C713        C718   1.404       .  A
C713        H720   1.084       .  S
C714        C715   1.412       .  A
C715        C716   1.402       .  A
C715        C722   1.506       .  S
C716        C717   1.402       .  A
C716        H721   1.084       .  S
C717        C718   1.411       .  A
C718        C719   1.505       .  S
C719        H723   1.111       .  S
C719        H724   1.110       .  S
C719        H725   1.110       .  S
C722        H726   1.110       .  S
C722        H727   1.110       .  S
C722        H728   1.111       .  S
C729        C734   1.405       .  A
C729        H736   1.084       .  S
C730        C731   1.415       .  A
C731        C732   1.403       .  A
C731        C738   1.507       .  S
C732        C733   1.402       .  A
C732        H737   1.084       .  S
C734        C735   1.506       .  S
C735        H739   1.110       .  S
C735        H740   1.110       .  S
C738        H743   1.107       .  S
C738        H744   1.110       .  S
C745        C750   1.404       .  A
C745        H752   1.084       .  S
C746        C747   1.414       .  A
C747        C748   1.402       .  A
C747        C754   1.508       .  S
C748        C749   1.402       .  A
C748        H753   1.084       .  S
C750        C751   1.507       .  S
C751        H755   1.110       .  S
C751        H757   1.110       .  S
C754        H758   1.110       .  S
C754        H760   1.110       .  S
C761        C762   1.403       .  A
C761        C766   1.403       .  A
C761        H768   1.084       .  S
C762       C1555   1.412       .  A
C763       C1554   1.411       .  A
C763        C764   1.405       .  A
C763        C770   1.506       .  S
C764       C1557   1.404       .  A
C764        H769   1.084       .  S
C765       C1556   1.403       .  A
C765        C766   1.412       .  A
C765       C1211   1.488       .  S
C766        C767   1.506       .  S
C767        H771   1.111       .  S
C767        H772   1.110       .  S
C767        H773   1.110       .  S
C770        H774   1.110       .  S
C770        H775   1.110       .  S
C770        H776   1.111       .  S
C777       C1570   1.403   1_455  A
C777        C782   1.406       .  A
C777        H784   1.084       .  S
C778       C1569   1.402       .  A
C778        C779   1.413       .  A
C779        C780   1.405       .  A
C779        C786   1.506       .  S
C780        C781   1.403       .  A
C780        H785   1.084       .  S
C781       C1574   1.411       .  A
C782       C1573   1.413   1_455  A
C782        C783   1.506       .  S
C783        H787   1.111       .  S
C783        H788   1.110       .  S
C783        H789   1.110       .  S
C786        H790   1.111       .  S
C786        H791   1.109       .  S
C786        H792   1.111       .  S
N793        C798   1.353       .  A
N793        H825   1.036       .  S
N794        C801   1.350       .  A
N794        C802   1.351       .  A
N795        C800   1.355       .  A
N795        H826   1.036       .  S
N796        C803   1.349       .  A
N796        C804   1.349       .  A
C797        C805   1.385       .  A
C797        C813   1.416       .  A
C798        C814   1.422   1_554  A
C798        C806   1.391       .  A
C799        C807   1.390       .  A
C799        C816   1.418   1_556  A
C800        C815   1.416       .  A
C800        C808   1.386       .  A
C801        C813   1.413       .  A
C801        C809   1.387   1_655  A
C802        C816   1.409       .  A
C802        C810   1.385   1_655  A
C803        C811   1.386       .  A
C803        C814   1.408       .  A
C804        C812   1.388       .  A
C804        C815   1.411       .  A
C805        H817   1.082       .  S
C806        H818   1.082       .  S
C807        H819   1.083       .  S
C808        H820   1.083       .  S
C809        C810   1.374       .  A
C809        H821   1.083       .  S
C810        H822   1.082       .  S
C811        C812   1.370       .  A
C811        H823   1.082       .  S
C812        H824   1.083       .  S
C813       C1174   1.489       .  S
C816        C866   1.474       .  S
N827        C832   1.356       .  A
N827        C831   1.355       .  A
N827        H859   1.035   1_655  S
N828        C835   1.351       .  A
N828        C836   1.350       .  A
N829        C834   1.353       .  A
N829        C833   1.355       .  A
N829        H860   1.036       .  S
N830        C837   1.349       .  A
N830        C838   1.350       .  A
C831        C839   1.391       .  A
C831        C847   1.424       .  A
C832        C848   1.418       .  A
C832        C840   1.385       .  A
C833        C841   1.386   1_455  A
C833        C850   1.416       .  A
C834        C849   1.420       .  A
C834        C842   1.390   1_455  A
C835        C847   1.411   1_455  A
C835        C843   1.386       .  A
C836        C850   1.413       .  A
C836        C844   1.387       .  A
C837        C845   1.389       .  A
C837        C848   1.414   1_455  A
C838        C846   1.385       .  A
C838        C849   1.407       .  A
C839        C840   1.376       .  A
C839        H851   1.082       .  S
C840        H852   1.082       .  S
C841        C842   1.373       .  A
C841        H853   1.082       .  S
C842        H854   1.083       .  S
C843        C844   1.371       .  A
C843        H855   1.082       .  S
C844        H856   1.083       .  S
C845        C846   1.371       .  A
C845        H857   1.083       .  S
C846        H858   1.083       .  S
C847        C914   1.480   1_655  S
C848       C1177   1.488       .  S
C849        C926   1.471       .  S
C850       C1158   1.485       .  S
O861        C896   1.235       .  S
O861      Mg1259   2.161   1_545  S
O861       Mg869   2.158   1_556  S
C862        H901   1.081       .  S
C862        O875   1.234       .  S
C862        O899   1.269       .  A
Mg863      O1257   2.147       .  S
Mg863       O892   2.144   1_556  S
Mg863       O907   2.284   1_556  S
Mg863       O903   2.255       .  S
Mg863       O874   2.305       .  S
O864        C885   1.234       .  S
O864       Mg906   2.154   1_556  S
O864       Mg889   2.145       .  S
O865       Mg889   2.305       .  S
C866        O868   1.269       .  A
O867       C1291   1.270       .  A
O867       Mg869   2.303   1_565  S
O868       Mg900   2.250       .  S
Mg869       O883   2.254       .  S
Mg869       O871   2.292   1_554  S
C870        C980   1.474       .  S
C870       O1304   1.270       .  A
C870        O876   1.271   1_565  A
O871        C878   1.271   1_655  A
H872        C885   1.081       .  S
C873        H898   1.081       .  S
C873        O887   1.234       .  S
O874        C897   1.271       .  A
O875       Mg889   2.151   1_554  S
O876       Mg906   2.281   1_556  S
C877       C1045   1.479       .  S
C877        O890   1.271       .  A
C877        O882   1.272       .  A
Mg879       O887   2.158   1_556  S
Mg879       O880   2.284   1_556  S
Mg879       O881   2.302       .  S
Mg879       O908   2.278       .  S
O881       C1281   1.269       .  A
O882       Mg889   2.288   1_554  S
O883        C902   1.269       .  A
O884        C904   1.272       .  A
O884       Mg900   2.293   1_556  S
C885       O1277   1.269       .  A
O886        C897   1.236       .  S
O886       Mg900   2.175   1_556  S
O887      Mg1302   2.157       .  S
O888       Mg900   2.294   1_455  S
Mg889       O905   2.250       .  S
O890       Mg906   2.271       .  S
H891        C896   1.081       .  S
O892        C895   1.234       .  S
O892       Mg900   2.141       .  S
H893        C895   1.081       .  S
H894        C897   1.081       .  S
C895       O1263   1.270       .  A
O899       Mg906   2.302       .  S
C902        C978   1.473       .  S
C902       O1303   1.272   1_545  A
O903        C904   1.268       .  A
C904       C1047   1.475       .  S
Mg906      O1283   2.160   1_545  S
O907       C1298   1.270       .  A
O908       C1266   1.272       .  A
O909        C944   1.233       .  S
O909      Mg1307   2.152       .  S
O909       Mg917   2.156       .  S
C910        H949   1.081       .  S
C910        O923   1.234       .  S
C910        O947   1.268       .  A
Mg911      O1305   2.147   1_545  S
Mg911       O940   2.147       .  S
Mg911       O955   2.278       .  S
Mg911       O951   2.263       .  S
Mg911       O922   2.305       .  S
O912        C933   1.233       .  S
O912       Mg954   2.155       .  S
O912       Mg937   2.143       .  S
O913       Mg937   2.294   1_455  S
C914        O928   1.271   1_455  A
O915       C1339   1.270       .  A
O915       Mg917   2.305       .  S
O916       Mg948   2.242       .  S
Mg917       O931   2.258       .  S
Mg917       O919   2.285       .  S
C918       C1012   1.473       .  S
C918        O956   1.267       .  A
C918       O1320   1.271   1_545  A
H920        C933   1.081       .  S
C921        H946   1.081       .  S
C921        O935   1.235       .  S
O922        C945   1.271       .  A
O923       Mg937   2.165       .  S
O924       C1314   1.271       .  A
O924       Mg954   2.285       .  S
C925       C1082   1.477       .  S
C925        O938   1.271       .  A
C925        O930   1.271       .  A
C926        O953   1.269   1_455  A
Mg927       O935   2.156       .  S
Mg927       O928   2.289       .  S
Mg927       O929   2.301   1_545  S
Mg927       O956   2.247       .  S
O929       C1329   1.269       .  A
O930       Mg937   2.285       .  S
O931       C1346   1.269       .  A
O932        C952   1.272       .  A
O932       Mg948   2.298       .  S
C933       O1325   1.269       .  A
O934        C945   1.236       .  S
O934       Mg948   2.162       .  S
O935      Mg1350   2.151   1_545  S
O936       Mg948   2.307       .  S
Mg937       O953   2.248       .  S
O938       Mg954   2.268       .  S
H939        C944   1.081       .  S
O940        C943   1.234       .  S
O940       Mg948   2.141       .  S
H941        C943   1.081       .  S
H942        C945   1.081       .  S
C943       O1311   1.269       .  A
O947       Mg954   2.300       .  S
C950       C1014   1.472       .  S
C950       O1327   1.269       .  A
C950        O955   1.270   1_565  A
O951        C952   1.269       .  A
C952       C1080   1.482       .  S
Mg954      O1331   2.165       .  S
N957        C962   1.353   1_545  A
N957        C961   1.351   1_545  A
N957        H989   1.038       .  S
N958        C965   1.354   1_565  A
N958        C966   1.353   1_565  A
N959        C964   1.350   1_545  A
N959        C963   1.350   1_545  A
N959        H990   1.036       .  S
N960        C967   1.350       .  A
N960        C968   1.351       .  A
C961        C969   1.388       .  A
C961        C977   1.414   1_565  A
C962        C978   1.410   1_565  A
C962        C970   1.385       .  A
C963        C971   1.387       .  A
C963        C980   1.408       .  A
C964        C979   1.412   1_565  A
C964        C972   1.388       .  A
C965        C977   1.416       .  A
C965        C973   1.384       .  A
C966        C980   1.421   1_544  A
C966        C974   1.389       .  A
C967        C975   1.389       .  A
C967        C978   1.415   1_556  A
C968        C976   1.385       .  A
C968        C979   1.411       .  A
C969        C970   1.376       .  A
C969        H981   1.083       .  S
C970        H982   1.082       .  S
C971        C972   1.374       .  A
C971        H983   1.082       .  S
C972        H984   1.083       .  S
C973        C974   1.373       .  A
C973        H985   1.082       .  S
C974        H986   1.082       .  S
C975        C976   1.373       .  A
C975        H987   1.083       .  S
C976        H988   1.083       .  S
C977       C1142   1.490       .  S
C979       C1129   1.480       .  S
N991        C996   1.352       .  A
N991        C995   1.351       .  A
N991       H1023   1.034       .  S
N992        C999   1.354       .  A
N992       C1000   1.353       .  A
N993        C998   1.349       .  A
N993        C997   1.350       .  A
N993       H1024   1.037   1_565  S
N994       C1001   1.351   1_565  A
N994       C1002   1.353   1_565  A
C995       C1003   1.389   1_545  A
C995       C1011   1.420       .  A
C996       C1012   1.412       .  A
C996       C1004   1.386   1_545  A
C997       C1005   1.387       .  A
C997       C1014   1.409       .  A
C998       C1013   1.411       .  A
C998       C1006   1.388       .  A
C999       C1011   1.418       .  A
C999       C1007   1.385       .  A
C1000      C1014   1.421   1_545  A
C1000      C1008   1.389       .  A
C1001      C1009   1.389       .  A
C1001      C1012   1.419       .  A
C1002      C1010   1.385       .  A
C1002      C1013   1.412   1_545  A
C1003      C1004   1.375       .  A
C1003      H1015   1.082       .  S
C1004      H1016   1.082       .  S
C1005      C1006   1.372       .  A
C1005      H1017   1.082       .  S
C1006      H1018   1.083       .  S
C1007      C1008   1.372       .  A
C1007      H1019   1.082       .  S
C1008      H1020   1.082       .  S
C1009      C1010   1.370       .  A
C1009      H1021   1.083       .  S
C1010      H1022   1.082       .  S
C1011      C1145   1.492       .  S
C1013      C1126   1.481   1_565  S
N1025      C1030   1.351       .  A
N1025      C1029   1.353       .  A
N1025      H1057   1.038       .  S
N1026      C1033   1.352       .  A
N1026      C1034   1.353       .  A
N1027      C1032   1.352       .  A
N1027      C1031   1.352       .  A
N1027      H1058   1.038       .  S
N1028      C1035   1.353       .  A
N1028      C1036   1.352       .  A
C1029      C1037   1.387       .  A
C1029      C1045   1.412       .  A
C1030      C1046   1.414       .  A
C1030      C1038   1.388       .  A
C1031      C1039   1.388       .  A
C1031      C1048   1.414       .  A
C1032      C1047   1.409       .  A
C1032      C1040   1.386       .  A
C1033      C1045   1.420   1_556  A
C1033      C1041   1.390       .  A
C1034      C1048   1.412       .  A
C1034      C1042   1.384       .  A
C1035      C1043   1.385       .  A
C1035      C1046   1.415       .  A
C1036      C1044   1.388       .  A
C1036      C1047   1.417   1_554  A
C1037      C1038   1.376       .  A
C1037      H1049   1.082       .  S
C1038      H1050   1.082       .  S
C1039      C1040   1.376       .  A
C1039      H1051   1.082       .  S
C1040      H1052   1.083       .  S
C1041      C1042   1.372       .  A
C1041      H1053   1.082       .  S
C1042      H1054   1.083       .  S
C1043      C1044   1.375       .  A
C1043      H1055   1.083       .  S
C1044      H1056   1.083       .  S
C1046      C1110   1.488       .  S
C1048      C1094   1.487       .  S
N1059      C1064   1.354       .  A
N1059      C1063   1.352       .  A
N1059      H1091   1.038       .  S
N1060      C1067   1.353       .  A
N1060      C1068   1.353       .  A
N1061      C1066   1.351       .  A
N1061      C1065   1.352       .  A
N1061      H1092   1.036       .  S
N1062      C1069   1.353       .  A
N1062      C1070   1.353       .  A
C1063      C1071   1.388       .  A
C1063      C1079   1.415       .  A
C1064      C1080   1.413       .  A
C1064      C1072   1.386       .  A
C1065      C1073   1.386       .  A
C1065      C1082   1.409       .  A
C1066      C1081   1.414       .  A
C1066      C1074   1.389       .  A
C1067      C1079   1.416       .  A
C1067      C1075   1.386       .  A
C1068      C1082   1.420       .  A
C1068      C1076   1.388       .  A
C1069      C1077   1.389       .  A
C1069      C1080   1.419       .  A
C1070      C1078   1.384       .  A
C1070      C1081   1.414       .  A
C1071      C1072   1.376       .  A
C1071      H1083   1.083       .  S
C1072      H1084   1.082       .  S
C1073      C1074   1.375       .  A
C1073      H1085   1.083       .  S
C1074      H1086   1.082       .  S
C1075      C1076   1.375       .  A
C1075      H1087   1.082       .  S
C1076      H1088   1.083       .  S
C1077      C1078   1.373       .  A
C1077      H1089   1.082       .  S
C1078      H1090   1.082       .  S
C1079      C1113   1.489       .  S
C1081      C1097   1.486       .  S
C1093      C1094   1.401       .  A
C1093      C1098   1.402       .  A
C1093      H1100   1.084       .  S
C1094      C1095   1.413       .  A
C1095      C1096   1.405       .  A
C1095      C1102   1.506       .  S
C1096      C1097   1.402       .  A
C1096      H1101   1.084       .  S
C1097      C1098   1.411       .  A
C1098      C1099   1.507       .  S
C1099      H1103   1.110       .  S
C1099      H1104   1.111       .  S
C1099      H1105   1.110       .  S
C1102      H1106   1.110       .  S
C1102      H1107   1.110       .  S
C1102      H1108   1.111       .  S
C1109      C1110   1.403       .  A
C1109      C1114   1.405       .  A
C1109      H1116   1.084       .  S
C1110      C1111   1.412       .  A
C1111      C1112   1.403       .  A
C1111      C1118   1.506       .  S
C1112      C1113   1.403       .  A
C1112      H1117   1.084       .  S
C1113      C1114   1.412       .  A
C1114      C1115   1.505       .  S
C1115      H1119   1.111       .  S
C1115      H1120   1.111       .  S
C1115      H1121   1.110       .  S
C1118      H1122   1.110       .  S
C1118      H1123   1.110       .  S
C1118      H1124   1.111       .  S
C1125      C1522   1.402       .  A
C1125      C1130   1.401       .  A
C1125      H1132   1.084       .  S
C1126      C1521   1.402   1_545  A
C1126      C1127   1.415       .  A
C1127      C1128   1.398       .  A
C1127      C1134   1.508       .  S
C1128      C1129   1.400       .  A
C1128      H1133   1.085       .  S
C1129      C1526   1.411   1_545  A
C1130      C1525   1.410       .  A
C1130      C1131   1.506       .  S
C1131      H1135   1.110       .  S
C1131      H1136   1.111       .  S
C1131      H1533   1.111       .  S
C1134      H1534   1.111       .  S
C1134      H1139   1.108       .  S
C1134      H1140   1.110       .  S
H1137      C1527   1.111       .  S
H1138      C1530   1.110       .  S
C1141      C1538   1.402       .  A
C1141      C1146   1.403       .  A
C1141      H1148   1.084       .  S
C1142      C1537   1.403       .  A
C1142      C1143   1.415   1_545  A
C1143      C1144   1.404       .  A
C1143      C1150   1.507       .  S
C1144      C1145   1.404   1_565  A
C1144      H1149   1.084       .  S
C1145      C1542   1.415       .  A
C1146      C1541   1.415       .  A
C1146      C1147   1.506       .  S
C1147      H1151   1.110       .  S
C1147      H1548   1.108       .  S
C1147      H1153   1.110       .  S
C1150      H1154   1.110       .  S
C1150      H1551   1.107       .  S
C1150      H1156   1.110       .  S
H1152      C1543   1.108       .  S
H1155      C1546   1.108       .  S
C1157      C1158   1.402   1_655  A
C1157      C1162   1.402       .  A
C1157      H1164   1.084       .  S
C1159      C1160   1.404       .  A
C1159      C1166   1.505       .  S
C1160      H1165   1.084       .  S
C1161      C1162   1.412       .  A
C1162      C1163   1.506       .  S
C1163      H1167   1.111       .  S
C1163      H1168   1.110       .  S
C1163      H1169   1.110       .  S
C1166      H1170   1.110       .  S
C1166      H1171   1.110       .  S
C1166      H1172   1.111       .  S
C1173      C1178   1.404       .  A
C1173      H1180   1.084       .  S
C1174      C1175   1.413       .  A
C1175      C1176   1.404       .  A
C1175      C1182   1.506       .  S
C1176      C1177   1.403       .  A
C1176      H1181   1.084       .  S
C1178      C1179   1.506       .  S
C1179      H1183   1.111       .  S
C1179      H1184   1.111       .  S
C1179      H1185   1.110       .  S
C1182      H1186   1.110       .  S
C1182      H1187   1.110       .  S
C1182      H1188   1.111       .  S
N1189      C1194   1.356       .  A
N1189      H1221   1.037       .  S
N1190      C1197   1.351   1_655  A
N1190      C1198   1.351   1_655  A
N1191      C1196   1.356       .  A
N1191      H1222   1.038       .  S
N1192      C1199   1.350       .  A
N1192      C1200   1.349       .  A
C1193      C1201   1.385       .  A
C1193      C1209   1.418       .  A
C1194      C1210   1.424   1_554  A
C1194      C1202   1.390       .  A
C1195      C1203   1.390       .  A
C1195      C1212   1.423   1_556  A
C1196      C1211   1.416       .  A
C1196      C1204   1.386       .  A
C1197      C1209   1.415   1_455  A
C1197      C1205   1.387       .  A
C1198      C1212   1.410   1_455  A
C1198      C1206   1.385       .  A
C1199      C1207   1.386       .  A
C1199      C1210   1.410       .  A
C1200      C1208   1.387       .  A
C1200      C1211   1.412       .  A
C1201      H1213   1.082       .  S
C1202      H1214   1.081       .  S
C1203      H1215   1.083       .  S
C1204      H1216   1.082       .  S
C1205      C1206   1.373       .  A
C1205      H1217   1.082       .  S
C1206      H1218   1.082       .  S
C1207      C1208   1.374       .  A
C1207      H1219   1.082       .  S
C1208      H1220   1.082       .  S
C1209      C1570   1.492       .  S
C1212      C1262   1.477       .  S
N1223      C1228   1.355   1_455  A
N1223      C1227   1.356   1_455  A
N1223      H1255   1.037       .  S
N1224      C1231   1.351       .  A
N1224      C1232   1.350       .  A
N1225      C1230   1.353   1_455  A
N1225      C1229   1.354       .  A
N1225      H1256   1.036       .  S
N1226      C1233   1.351       .  A
N1226      C1234   1.352   1_655  A
C1227      C1235   1.390       .  A
C1227      C1243   1.424   1_655  A
C1228      C1244   1.417       .  A
C1228      C1236   1.384       .  A
C1229      C1237   1.386   1_455  A
C1229      C1246   1.415       .  A
C1230      C1245   1.419       .  A
C1230      C1238   1.390       .  A
C1231      C1243   1.412       .  A
C1231      C1239   1.386       .  A
C1232      C1246   1.413       .  A
C1232      C1240   1.387       .  A
C1233      C1241   1.388   1_655  A
C1233      C1244   1.415       .  A
C1234      C1242   1.384       .  A
C1234      C1245   1.410   1_455  A
C1235      C1236   1.376       .  A
C1235      H1247   1.081       .  S
C1236      H1248   1.082       .  S
C1237      C1238   1.373       .  A
C1237      H1249   1.082       .  S
C1238      H1250   1.083       .  S
C1239      C1240   1.374       .  A
C1239      H1251   1.082       .  S
C1240      H1252   1.082       .  S
C1241      C1242   1.373       .  A
C1241      H1253   1.082       .  S
C1242      H1254   1.082       .  S
C1243      C1310   1.484       .  S
C1244      C1573   1.491       .  S
C1245      C1322   1.476       .  S
C1246      C1554   1.485       .  S
O1257      C1292   1.235       .  S
O1257     Mg1265   2.150   1_556  S
C1258      H1297   1.081       .  S
C1258      O1271   1.235       .  S
C1258      O1295   1.270       .  A
Mg1259     O1288   2.168   1_556  S
Mg1259     O1303   2.289   1_556  S
Mg1259     O1299   2.275       .  S
Mg1259     O1270   2.296       .  S
O1260      C1281   1.233       .  S
O1260     Mg1302   2.152   1_556  S
O1260     Mg1285   2.150       .  S
O1261     Mg1285   2.306       .  S
C1262      O1264   1.271       .  A
O1263     Mg1265   2.305       .  S
O1264     Mg1296   2.274       .  S
Mg1265     O1279   2.252       .  S
Mg1265     O1267   2.280   1_554  S
C1266      C1376   1.476       .  S
C1266      O1272   1.270       .  A
O1267      C1274   1.270   1_655  A
H1268      C1281   1.081       .  S
C1269      H1294   1.081       .  S
C1269      O1283   1.233       .  S
O1270      C1293   1.267       .  A
O1271     Mg1285   2.160   1_554  S
O1272     Mg1302   2.281   1_556  S
C1273      C1441   1.480       .  S
C1273      O1286   1.270       .  A
C1273      O1278   1.271       .  A
Mg1275     O1283   2.165   1_556  S
Mg1275     O1276   2.296   1_556  S
Mg1275     O1277   2.308   1_565  S
Mg1275     O1304   2.260       .  S
O1278     Mg1285   2.284   1_554  S
O1279      C1298   1.268       .  A
O1280      C1300   1.273       .  A
O1280     Mg1296   2.297   1_556  S
O1282      C1293   1.233       .  S
O1282     Mg1296   2.159   1_556  S
O1284     Mg1296   2.303       .  S
Mg1285     O1301   2.262       .  S
O1286     Mg1302   2.269       .  S
H1287      C1292   1.081       .  S
O1288      C1291   1.235       .  S
O1288     Mg1296   2.157       .  S
H1289      C1291   1.081       .  S
H1290      C1293   1.081       .  S
O1295     Mg1302   2.303       .  S
C1298      C1374   1.472       .  S
O1299      C1300   1.272       .  A
C1300      C1443   1.482       .  S
O1305      C1340   1.233       .  S
O1305     Mg1313   2.153       .  S
C1306      H1345   1.081       .  S
C1306      O1319   1.235       .  S
C1306      O1343   1.269       .  A
Mg1307     O1336   2.160       .  S
Mg1307     O1351   2.295       .  S
Mg1307     O1347   2.262       .  S
Mg1307     O1318   2.300       .  S
O1308      C1329   1.234       .  S
O1308     Mg1350   2.159       .  S
O1308     Mg1333   2.143       .  S
O1309     Mg1333   2.300   1_455  S
C1310      O1324   1.275   1_455  A
O1311     Mg1313   2.303   1_545  S
O1312     Mg1344   2.257       .  S
Mg1313     O1327   2.250       .  S
Mg1313     O1315   2.282       .  S
C1314      C1408   1.479       .  S
C1314      O1352   1.272       .  A
H1316      C1329   1.081       .  S
C1317      H1342   1.081       .  S
C1317      O1331   1.235       .  S
O1318      C1341   1.268       .  A
O1319     Mg1333   2.166       .  S
O1320     Mg1350   2.289       .  S
C1321      C1478   1.474       .  S
C1321      O1334   1.269       .  A
C1321      O1326   1.272       .  A
C1322      O1349   1.270       .  A
Mg1323     O1331   2.161       .  S
Mg1323     O1324   2.310       .  S
Mg1323     O1325   2.305       .  S
Mg1323     O1352   2.274       .  S
O1326     Mg1333   2.290       .  S
O1328      C1348   1.272       .  A
O1328     Mg1344   2.294       .  S
O1330      C1341   1.233       .  S
O1330     Mg1344   2.152       .  S
O1332     Mg1344   2.305       .  S
Mg1333     O1349   2.258       .  S
O1334     Mg1350   2.251       .  S
H1335      C1340   1.081       .  S
O1336      C1339   1.235       .  S
O1336     Mg1344   2.153       .  S
H1337      C1339   1.081       .  S
H1338      C1341   1.081       .  S
O1343     Mg1350   2.300       .  S
C1346      C1410   1.477       .  S
C1346      O1351   1.272       .  A
O1347      C1348   1.270       .  A
C1348      C1476   1.479       .  S
N1353      C1358   1.353       .  A
N1353      C1357   1.351       .  A
N1353      H1385   1.037       .  S
N1354      C1361   1.354       .  A
N1354      C1362   1.353       .  A
N1355      C1360   1.351       .  A
N1355      C1359   1.351       .  A
N1355      H1386   1.038       .  S
N1356      C1363   1.350       .  A
N1356      C1364   1.351       .  A
C1357      C1365   1.388       .  A
C1357      C1373   1.415       .  A
C1358      C1374   1.411       .  A
C1358      C1366   1.386       .  A
C1359      C1367   1.386       .  A
C1359      C1376   1.408       .  A
C1360      C1375   1.412       .  A
C1360      C1368   1.388       .  A
C1361      C1373   1.416       .  A
C1361      C1369   1.385       .  A
C1362      C1376   1.419   1_554  A
C1362      C1370   1.388       .  A
C1363      C1371   1.390       .  A
C1363      C1374   1.416   1_556  A
C1364      C1372   1.384       .  A
C1364      C1375   1.409       .  A
C1365      C1366   1.376       .  A
C1365      H1377   1.082       .  S
C1366      H1378   1.082       .  S
C1367      C1368   1.374       .  A
C1367      H1379   1.082       .  S
C1368      H1380   1.082       .  S
C1369      C1370   1.373       .  A
C1369      H1381   1.082       .  S
C1370      H1382   1.082       .  S
C1371      C1372   1.371       .  A
C1371      H1383   1.082       .  S
C1372      H1384   1.083       .  S
C1373      C1538   1.489       .  S
C1375      C1525   1.482       .  S
N1387      C1392   1.354       .  A
N1387      C1391   1.353       .  A
N1387      H1419   1.036       .  S
N1388      C1395   1.354       .  A
N1388      C1396   1.353       .  A
N1389      C1394   1.351       .  A
N1389      C1393   1.352       .  A
N1389      H1420   1.035       .  S
N1390      C1397   1.352       .  A
N1390      C1398   1.353       .  A
C1391      C1399   1.388       .  A
C1391      C1407   1.417       .  A
C1392      C1408   1.414       .  A
C1392      C1400   1.386       .  A
C1393      C1401   1.386       .  A
C1393      C1410   1.410       .  A
C1394      C1409   1.415       .  A
C1394      C1402   1.389       .  A
C1395      C1407   1.416       .  A
C1395      C1403   1.385       .  A
C1396      C1410   1.421       .  A
C1396      C1404   1.389       .  A
C1397      C1405   1.390       .  A
C1397      C1408   1.419       .  A
C1398      C1406   1.385       .  A
C1398      C1409   1.414       .  A
C1399      C1400   1.375       .  A
C1399      H1411   1.082       .  S
C1400      H1412   1.082       .  S
C1401      C1402   1.376       .  A
C1401      H1413   1.083       .  S
C1402      H1414   1.083       .  S
C1403      C1404   1.374       .  A
C1403      H1415   1.082       .  S
C1404      H1416   1.083       .  S
C1405      C1406   1.371       .  A
C1405      H1417   1.082       .  S
C1406      H1418   1.083       .  S
C1407      C1541   1.489       .  S
C1409      C1522   1.484       .  S
N1421      C1426   1.349       .  A
N1421      C1425   1.353       .  A
N1421      H1453   1.033       .  S
N1422      C1429   1.354       .  A
N1422      C1430   1.353       .  A
N1423      C1428   1.355       .  A
N1423      C1427   1.351       .  A
N1423      H1454   1.034       .  S
N1424      C1431   1.354       .  A
N1424      C1432   1.354       .  A
C1425      C1433   1.386       .  A
C1425      C1441   1.411       .  A
C1426      C1442   1.415       .  A
C1426      C1434   1.389       .  A
C1427      C1435   1.390       .  A
C1427      C1444   1.418       .  A
C1428      C1443   1.413       .  A
C1428      C1436   1.385       .  A
C1429      C1441   1.422   1_556  A
C1429      C1437   1.389       .  A
C1430      C1444   1.418       .  A
C1430      C1438   1.386       .  A
C1431      C1439   1.385       .  A
C1431      C1442   1.416       .  A
C1432      C1440   1.388       .  A
C1432      C1443   1.420   1_554  A
C1433      C1434   1.374       .  A
C1433      H1445   1.082       .  S
C1434      H1446   1.083       .  S
C1435      C1436   1.374       .  A
C1435      H1447   1.082       .  S
C1436      H1448   1.082       .  S
C1437      C1438   1.373       .  A
C1437      H1449   1.082       .  S
C1438      H1450   1.082       .  S
C1439      C1440   1.372       .  A
C1439      H1451   1.082       .  S
C1440      H1452   1.083       .  S
C1442      C1506   1.483       .  S
C1444      C1490   1.486       .  S
N1455      C1460   1.354       .  A
N1455      C1459   1.352       .  A
N1455      H1487   1.033       .  S
N1456      C1463   1.352       .  A
N1456      C1464   1.352       .  A
N1457      C1462   1.352       .  A
N1457      C1461   1.352       .  A
N1457      H1488   1.027       .  S
N1458      C1465   1.353       .  A
N1458      C1466   1.353       .  A
C1459      C1467   1.388       .  A
C1459      C1475   1.416       .  A
C1460      C1476   1.413       .  A
C1460      C1468   1.386       .  A
C1461      C1469   1.386       .  A
C1461      C1478   1.412       .  A
C1462      C1477   1.417       .  A
C1462      C1470   1.389       .  A
C1463      C1475   1.414       .  A
C1463      C1471   1.385       .  A
C1464      C1478   1.419       .  A
C1464      C1472   1.389       .  A
C1465      C1473   1.389       .  A
C1465      C1476   1.420       .  A
C1466      C1474   1.385       .  A
C1466      C1477   1.417       .  A
C1467      C1468   1.375       .  A
C1467      H1479   1.083       .  S
C1468      H1480   1.082       .  S
C1469      C1470   1.375       .  A
C1469      H1481   1.083       .  S
C1470      H1482   1.082       .  S
C1471      C1472   1.371       .  A
C1471      H1483   1.083       .  S
C1472      H1484   1.083       .  S
C1473      C1474   1.371       .  A
C1473      H1485   1.082       .  S
C1474      H1486   1.082       .  S
C1475      C1509   1.485       .  S
C1477      C1493   1.486       .  S
C1489      C1490   1.402       .  A
C1489      C1494   1.402       .  A
C1489      H1496   1.084       .  S
C1490      C1491   1.412       .  A
C1491      C1492   1.404       .  A
C1491      C1498   1.506       .  S
C1492      C1493   1.403       .  A
C1492      H1497   1.084       .  S
C1493      C1494   1.411       .  A
C1494      C1495   1.506       .  S
C1495      H1499   1.111       .  S
C1495      H1500   1.110       .  S
C1495      H1501   1.110       .  S
C1498      H1502   1.110       .  S
C1498      H1503   1.110       .  S
C1498      H1504   1.111       .  S
C1505      C1506   1.402       .  A
C1505      C1510   1.403       .  A
C1505      H1512   1.084       .  S
C1506      C1507   1.411       .  A
C1507      C1508   1.401       .  A
C1507      C1514   1.507       .  S
C1508      C1509   1.402       .  A
C1508      H1513   1.084       .  S
C1509      C1510   1.412       .  A
C1510      C1511   1.506       .  S
C1511      H1515   1.111       .  S
C1511      H1516   1.110       .  S
C1511      H1517   1.109       .  S
C1514      H1518   1.110       .  S
C1514      H1519   1.110       .  S
C1514      H1520   1.111       .  S
C1521      C1526   1.401       .  A
C1521      H1528   1.084       .  S
C1522      C1523   1.414       .  A
C1523      C1524   1.401       .  A
C1523      C1530   1.506       .  S
C1524      C1525   1.401       .  A
C1524      H1529   1.084       .  S
C1526      C1527   1.506       .  S
C1527      H1531   1.110       .  S
C1527      H1532   1.110       .  S
C1530      H1535   1.108       .  S
C1530      H1536   1.111       .  S
C1537      C1542   1.402       .  A
C1537      H1544   1.085       .  S
C1538      C1539   1.415       .  A
C1539      C1540   1.403       .  A
C1539      C1546   1.507       .  S
C1540      C1541   1.402       .  A
C1540      H1545   1.084       .  S
C1542      C1543   1.508       .  S
C1543      H1547   1.111       .  S
C1543      H1549   1.110       .  S
C1546      H1550   1.110       .  S
C1546      H1552   1.111       .  S
C1553      C1554   1.401   1_655  A
C1553      C1558   1.401       .  A
C1553      H1560   1.084       .  S
C1555      C1556   1.406       .  A
C1555      C1562   1.505       .  S
C1556      H1561   1.084       .  S
C1557      C1558   1.411   1_455  A
C1558      C1559   1.506       .  S
C1559      H1563   1.111       .  S
C1559      H1564   1.110       .  S
C1559      H1565   1.110       .  S
C1562      H1566   1.110       .  S
C1562      H1567   1.111       .  S
C1562      H1568   1.111       .  S
C1569      C1574   1.403       .  A
C1569      H1576   1.084       .  S
C1570      C1571   1.413       .  A
C1571      C1572   1.405       .  A
C1571      C1578   1.505       .  S
C1572      C1573   1.402       .  A
C1572      H1577   1.084       .  S
C1574      C1575   1.506       .  S
C1575      H1579   1.111       .  S
C1575      H1580   1.110       .  S
C1575      H1581   1.110       .  S
C1578      H1582   1.110       .  S
C1578      H1583   1.110       .  S
C1578      H1584   1.111       .  S
