geometry optimzed in LAMMPS
_audit_creation_date              2020-12-01 
_audit_creation_method            'lammps2cif' 
_symmetry_space_group_name_H-M    'P1' 
_symmetry_Int_Tables_number       1 
_symmetry_cell_setting            triclinic 
loop_ 
_symmetry_equiv_pos_as_xyz 
  x,y,z 
_cell_length_a                    38.23603465 
_cell_length_b                    38.25086109137164 
_cell_length_c                    58.83684756821223 
_cell_angle_alpha                 90.00156741625676 
_cell_angle_beta                  90.00068286322482 
_cell_angle_gamma                 120.36502112819502 
loop_ 
_atom_site_label 
_atom_site_type_symbol 
_atom_site_fract_x 
_atom_site_fract_y 
_atom_site_fract_z 
_atom_site_charge 
C1          C  0.01922749  0.48050310  0.74982298     0.79900
N2          N  0.03980406  0.02178297  0.74981925    -0.78400
C3          C  0.01942890  0.04245904  0.74981587     0.82400
N4          N  0.47818718  0.02152584  0.74981675    -0.78300
C5          C  0.45724685  0.48030060  0.74982065     0.82400
N6          N  0.47793443  0.45994006  0.74982380    -0.80100
O7          O  0.05236152  0.38891174  0.78394303    -0.73300
O8          O  0.05237124  0.38888885  0.71573619    -0.74200
O9          O  0.08299168  0.35828948  0.74984725    -0.62900
O10         O  0.02198191  0.41939841  0.74983143    -0.71300
O11         O  0.08033508  0.47770331  0.74982974    -0.70800
O12         O  0.14133438  0.41658619  0.74984823    -0.62100
O13         O  0.11078421  0.44725062  0.71573537    -0.74600
O14         O  0.11077221  0.44727585  0.78394304    -0.73400
Cu15       Cu  0.05042629  0.38681986  0.74983970     1.04600
Cu16       Cu  0.11286111  0.44920151  0.74983922     1.04300
C17         C  0.08140204  0.41826004  0.79467284     0.92900
C18         C  0.08141836  0.41822715  0.70500577     0.92100
C19         C  0.12178740  0.37780490  0.74984854     0.84200
C20         C  0.04154662  0.45817286  0.74982808     0.90500
C21         C  0.20615907  0.35567122  0.74984421     0.79900
N22         N  0.18544276  0.37601584  0.74984907    -0.78400
C23         C  0.14413589  0.35545175  0.74984740     0.82400
N24         N  0.12357099  0.31415854  0.74983960    -0.78300
C25         C  0.14393852  0.29346181  0.74983412     0.82400
N26         N  0.18520439  0.31442205  0.74983676    -0.80100
O27         O  0.08274678  0.22889582  0.74982030    -0.73300
O28         O  0.02217665  0.10625538  0.74981161    -0.74200
O29         O  0.05228325  0.16737981  0.78390322    -0.62900
O30         O  0.05230749  0.16738894  0.71572715    -0.71300
O31         O  0.11071970  0.16805467  0.71571036    -0.70800
O32         O  0.11069773  0.16805000  0.78393152    -0.62100
O33         O  0.08054865  0.10694324  0.74981855    -0.74600
O34         O  0.14109427  0.22955668  0.74982505    -0.73400
Cu35       Cu  0.05037304  0.16749926  0.74981502     1.04600
Cu36       Cu  0.11283349  0.16824794  0.74982144     1.04300
C37         C  0.12153184  0.24856531  0.74982572     0.92900
C38         C  0.04177731  0.08728919  0.74981483     0.92100
C39         C  0.08130113  0.16736703  0.79464515     0.84200
C40         C  0.08132897  0.16737392  0.70499087     0.90500
O41         O  0.39276484  0.41918831  0.74982983    -0.73300
O42         O  0.27011163  0.35856383  0.74984355    -0.74200
O43         O  0.33162559  0.38897552  0.71572582    -0.62900
O44         O  0.33165580  0.38901237  0.78394817    -0.71300
O45         O  0.33227424  0.44737830  0.78391971    -0.70800
O46         O  0.33223887  0.44733894  0.71574359    -0.62100
O47         O  0.27072090  0.41686328  0.74983980    -0.74600
O48         O  0.39340641  0.47751503  0.74982303    -0.73400
Cu49       Cu  0.33144425  0.38686821  0.74983721     1.04600
Cu50       Cu  0.33213703  0.44927688  0.74983132     1.04300
C51         C  0.41240205  0.45794433  0.74982432     0.92900
C52         C  0.25107065  0.37809300  0.74984301     0.92100
C53         C  0.33228085  0.41834227  0.70500681     0.84200
C54         C  0.33232508  0.41839173  0.79466179     0.90500
N55         N  0.34224618  0.35826920  0.58169973    -0.27600
N56         N  0.36174341  0.38522403  0.56556425    -0.35500
C57         C  0.35283058  0.36651224  0.54534361     0.00700
C58         C  0.32692811  0.32567024  0.54879218     0.06800
C59         C  0.32046684  0.32146826  0.57204707    -0.06300
H60         H  0.36088840  0.38209429  0.52915611     0.07400
H61         H  0.29863051  0.29442781  0.58099442     0.08600
Cu62       Cu  0.38751211  0.44664222  0.56971480     0.44200
Cu63       Cu  0.33966501  0.37481227  0.61495662     0.42000
Cu64       Cu  0.33913524  0.46938132  0.61498566     0.43900
N65         N  0.36162565  0.48192043  0.56563975    -0.35000
N66         N  0.34185024  0.48882011  0.58176369    -0.29200
C67         C  0.32001927  0.50355265  0.57211075    -0.05300
C68         C  0.32677004  0.50624874  0.54887514     0.06900
C69         C  0.35287995  0.49183436  0.54543339     0.00700
H70         H  0.29795807  0.00825917  0.58103271     0.08300
H71         H  0.36117492  0.48466390  0.52923911     0.07400
N72         N  0.33658957  0.43792623  0.64428676    -0.36400
N73         N  0.33675992  0.40341253  0.64426924    -0.28600
C74         C  0.33493163  0.39099073  0.66584311    -0.03900
C75         C  0.33353322  0.41901209  0.68007469     0.04700
C76         C  0.33467444  0.44837375  0.66587793     0.02800
H77         H  0.33480311  0.36367316  0.67077932     0.07900
H78         H  0.33427877  0.47540929  0.67085053     0.06800
N79         N  0.01092631  0.35717640  0.58170463    -0.27600
N80         N  0.01821220  0.38405986  0.56560267    -0.35500
C81         C  0.00822678  0.36536705  0.54537572     0.00700
C82         C  0.99336220  0.32460002  0.54877482     0.06800
C83         C  0.99585975  0.32044582  0.57201596    -0.06300
H84         H  0.01568304  0.38097941  0.52919953     0.07400
H85         H  0.49082766  0.29352863  0.58091679     0.08600
Cu86       Cu  0.05410107  0.44553891  0.56974209     0.44200
Cu87       Cu  0.03038827  0.37386086  0.61494461     0.42000
Cu88       Cu  0.12580081  0.46920696  0.61494268     0.43900
N89         N  0.11560551  0.48140458  0.56560384    -0.35000
N90         N  0.14249781  0.48868053  0.58170659    -0.29200
C91         C  0.17924618  0.50375807  0.57202098    -0.05300
C92         C  0.17509290  0.50627041  0.54878100     0.06900
C93         C  0.13430935  0.49140403  0.54537876     0.00700
H94         H  0.20615763  0.00880942  0.58092021     0.08300
H95         H  0.11869511  0.48396820  0.52920061     0.07400
N96         N  0.09679393  0.43763831  0.64426176    -0.36400
N97         N  0.06198210  0.40285202  0.64426258    -0.27800
C98         C  0.05132269  0.39047021  0.66585044    -0.03900
C99         C  0.08084459  0.41879599  0.68006840     0.04700
C100        C  0.10918870  0.44829357  0.66584908     0.02800
H101        H  0.02402973  0.36296929  0.67080537     0.07900
H102        H  0.13671074  0.47556795  0.67080275     0.06800
N103        N  0.01088994  0.35723107  0.91796699    -0.27600
N104        N  0.01817312  0.38409810  0.93407963    -0.35500
C105        C  0.00819648  0.36538591  0.95430030     0.00700
C106        C  0.99334179  0.32462396  0.95088525     0.06800
C107        C  0.99583504  0.32049255  0.92764189    -0.06300
H108        H  0.01565187  0.38098240  0.97048204     0.07400
H109        H  0.49080769  0.29358618  0.91872934     0.08600
Cu110      Cu  0.05404839  0.44558279  0.92995891     0.44200
Cu111      Cu  0.03034102  0.37394320  0.88472998     0.42000
Cu112      Cu  0.12572697  0.46930367  0.88473466     0.43900
N113        N  0.11555560  0.48145910  0.93408433    -0.35000
N114        N  0.14243763  0.48875466  0.91797267    -0.29200
C115        C  0.17919401  0.50382962  0.92764857    -0.05300
C116        C  0.17505719  0.50631982  0.95089163     0.06900
C117        C  0.13427506  0.49144409  0.95430566     0.00700
H118        H  0.20612303  0.00887059  0.91873595     0.08300
H119        H  0.11867312  0.48399041  0.97048737     0.07400
N120        N  0.09673956  0.43772068  0.85541496    -0.36400
N121        N  0.06193528  0.40292735  0.85541362    -0.28600
C122        C  0.05128983  0.39052839  0.83382654    -0.03900
C123        C  0.08081374  0.41884995  0.81960950     0.04700
C124        C  0.10914415  0.44836375  0.83382854     0.02800
H125        H  0.02400680  0.36301626  0.82887160     0.07900
H126        H  0.13666474  0.47563844  0.82887545     0.06800
N127        N  0.34230102  0.35833698  0.91796625    -0.27600
N128        N  0.36178507  0.38527709  0.93411155    -0.35500
C129        C  0.35285509  0.36654611  0.95432592     0.00700
C130        C  0.32695392  0.32570713  0.95086268     0.06800
C131        C  0.32051230  0.32152725  0.92760582    -0.06300
H132        H  0.36089813  0.38211296  0.97051862     0.07400
H133        H  0.29868228  0.29449596  0.91864795     0.08600
Cu134      Cu  0.38755346  0.44669928  0.92997907     0.44200
Cu135      Cu  0.33974549  0.37490762  0.88471342     0.42000
Cu136      Cu  0.33923939  0.46948221  0.88468269     0.43900
N137        N  0.36165910  0.48197373  0.93404192    -0.35000
N138        N  0.34190829  0.48888850  0.91790936    -0.29200
C139        C  0.32006178  0.50361136  0.92755387    -0.05300
C140        C  0.32677717  0.50628598  0.95079276     0.06900
C141        C  0.35288245  0.49186923  0.95424512     0.00700
H142        H  0.29805525  0.00834886  0.91862745     0.08300
H143        H  0.36115370  0.48468515  0.97044253     0.07400
N144        N  0.33668438  0.43802241  0.85538002    -0.36400
N145        N  0.33684513  0.40350397  0.85539995    -0.28600
C146        C  0.33500195  0.39106879  0.83382759    -0.03900
C147        C  0.33360301  0.41908557  0.81959367     0.04700
C148        C  0.33476041  0.44845977  0.83378788     0.02800
H149        H  0.33485926  0.36374252  0.82889405     0.07900
H150        H  0.33436499  0.47549434  0.82881290     0.06800
N151        N  0.14149315  0.15756354  0.58167781    -0.27600
N152        N  0.11453714  0.13807891  0.56553606    -0.35500
C153        C  0.13326388  0.14701753  0.54531795     0.00700
C154        C  0.17411725  0.17292246  0.54877505     0.06800
C155        C  0.17831022  0.17935933  0.57203203    -0.06300
H156        H  0.11768225  0.13896744  0.52912761     0.07400
H157        H  0.20535405  0.20118494  0.58098670     0.08600
Cu158      Cu  0.05308871  0.11227322  0.56968135     0.44200
Cu159      Cu  0.12492580  0.16009662  0.61493710     0.42000
Cu160      Cu  0.03028775  0.16055878  0.61496978     0.43900
N161        N  0.01778120  0.13813397  0.56561584    -0.35000
N162        N  0.01086614  0.15788243  0.58174609    -0.29200
C163        C  0.99613841  0.17971880  0.57209943    -0.05300
C164        C  0.99345846  0.17299775  0.54886119     0.06900
C165        C  0.00787846  0.14689965  0.54541183     0.00700
H166        H  0.49141131  0.20172768  0.58102668     0.08300
H167        H  0.01506923  0.13863144  0.52921556     0.07400
N168        N  0.06175066  0.16309258  0.64427025    -0.36400
N169        N  0.09629087  0.16294852  0.64425218    -0.28600
C170        C  0.10871352  0.16476639  0.66582673    -0.03900
C171        C  0.08066317  0.16612954  0.68005870     0.04700
C172        C  0.05128508  0.16497948  0.66586192     0.02800
H173        H  0.13604991  0.16491417  0.67076253     0.07900
H174        H  0.02422958  0.16535347  0.67083427     0.06800
N175        N  0.14148842  0.15758842  0.91795221    -0.27600
N176        N  0.11453897  0.13809262  0.93409390    -0.35500
C177        C  0.13327310  0.14702314  0.95431025     0.00700
C178        C  0.17412441  0.17293616  0.95085183     0.06800
C179        C  0.17830793  0.17938498  0.92759603    -0.06300
H180        H  0.11769683  0.13896573  0.97050169     0.07400
H181        H  0.20534638  0.20121964  0.91864185     0.08600
Cu182      Cu  0.05308924  0.11229026  0.92995373     0.44200
Cu183      Cu  0.12490721  0.16013224  0.88469865     0.42000
Cu184      Cu  0.03024782  0.16055131  0.88466582     0.43900
N185        N  0.01777375  0.13814245  0.93402272    -0.35000
N186        N  0.01084167  0.15787889  0.91789314    -0.29200
C187        C  0.99610836  0.17970945  0.92754176    -0.05300
C188        C  0.99344303  0.17299781  0.95078052     0.06900
C189        C  0.00787737  0.14691113  0.95422803     0.00700
H190        H  0.49136740  0.20170923  0.91861499     0.08300
H191        H  0.01508013  0.13865221  0.97042330     0.07400
N192        N  0.06171204  0.16309153  0.85536446    -0.36400
N193        N  0.09626031  0.16296343  0.85538470    -0.28600
C194        C  0.10868495  0.16477989  0.83381140    -0.03900
C195        C  0.08062820  0.16612557  0.81957712     0.04700
C196        C  0.05124329  0.16496709  0.83377150     0.02800
H197        H  0.13602795  0.16493895  0.82887803     0.07900
H198        H  0.02418192  0.16532770  0.82879672     0.06800
O199        O  0.22956671  0.19601852  0.97627504    -0.73300
O200        O  0.30117663  0.27321649  0.02444502    -0.74200
O201        O  0.22662627  0.19869565  0.02444381    -0.62900
O202        O  0.30385271  0.27027466  0.97627668    -0.71300
O203        O  0.27049659  0.30389844  0.97503690    -0.70800
O204        O  0.19327379  0.23232307  0.02319845    -0.62100
O205        O  0.26753464  0.30655459  0.02320081    -0.74600
O206        O  0.19593480  0.22936640  0.97503229    -0.73400
Cu207      Cu  0.26648711  0.23336953  0.00048272     1.04600
Cu208      Cu  0.23062890  0.26921559  0.99899078     1.04300
C209        C  0.20140210  0.20082330  0.96808906     0.92900
C210        C  0.29568701  0.30174152  0.03139654     0.92100
C211        C  0.19809134  0.20418430  0.03139542     0.84200
C212        C  0.29905039  0.29843286  0.96809416     0.90500
O213        O  0.03522691  0.30676733  0.02303655    -0.73300
O214        O  0.02872589  0.22962842  0.97482302    -0.74200
O215        O  0.02864805  0.30364840  0.97489451    -0.62900
O216        O  0.53530781  0.23298277  0.02298171    -0.71300
O217        O  0.46797290  0.19878927  0.02465554    -0.70800
O218        O  0.46131331  0.26946661  0.97656518    -0.62100
O219        O  0.46139177  0.19566009  0.97650994    -0.74600
O220        O  0.46789340  0.27280157  0.02473000    -0.73400
Cu221      Cu  0.03434895  0.26945673  0.99879570     1.04600
Cu222      Cu  0.46226836  0.23297744  0.00075034     1.04300
C223        C  0.50223435  0.30160805  0.03148294     0.92900
C224        C  0.99438890  0.20080990  0.96807498     0.92100
C225        C  0.99429628  0.29773683  0.96815717     0.84200
C226        C  0.50233039  0.20472483  0.03140010     0.90500
O227        O  0.30385210  0.27025143  0.52336803    -0.73300
O228        O  0.22665062  0.19867218  0.47518868    -0.74200
O229        O  0.30119887  0.27318751  0.47519589    -0.62900
O230        O  0.22956728  0.19599923  0.52335959    -0.71300
O231        O  0.19593440  0.22934681  0.52459029    -0.70800
O232        O  0.26755833  0.30652770  0.47642860    -0.62100
O233        O  0.19329961  0.23230189  0.47642254    -0.74600
O234        O  0.27049733  0.30387719  0.52459651    -0.73400
Cu235      Cu  0.26649912  0.23334616  0.49915608     1.04600
Cu236      Cu  0.23064183  0.26919399  0.50063563     1.04300
C237        C  0.29904379  0.29840762  0.53154875     0.92900
C238        C  0.19812262  0.20416444  0.46822812     0.92100
C239        C  0.29570839  0.30170732  0.46823644     0.84200
C240        C  0.20139926  0.20080527  0.53153873     0.90500
O241        O  0.53531916  0.23297566  0.47666027    -0.73300
O242        O  0.02866341  0.30364295  0.52474888    -0.74200
O243        O  0.02874072  0.22962551  0.52481907    -0.62900
O244        O  0.03523397  0.30675526  0.47660329    -0.71300
O245        O  0.46790020  0.27278828  0.47491135    -0.70800
O246        O  0.46140651  0.19565526  0.52313076    -0.62100
O247        O  0.46132852  0.26945984  0.52308014    -0.74600
O248        O  0.46798402  0.19878120  0.47498539    -0.73400
Cu249      Cu  0.03436108  0.26945058  0.50084614     1.04600
Cu250      Cu  0.46228022  0.23296980  0.49889182     1.04300
C251        C  0.50234163  0.20471820  0.46824055     0.92900
C252        C  0.99431276  0.29772698  0.53149061     0.92100
C253        C  0.99440415  0.20080735  0.53156651     0.84200
C254        C  0.50223978  0.30158917  0.46815438     0.90500
O255        O  0.26684596  0.96457057  0.02301972    -0.73300
O256        O  0.19608202  0.47109294  0.97492612    -0.74200
O257        O  0.27014953  0.47104728  0.97485457    -0.62900
O258        O  0.19301972  0.46461927  0.02307259    -0.71300
O259        O  0.22697101  0.03193013  0.02471902    -0.70800
O260        O  0.30411423  0.03836217  0.97650394    -0.62100
O261        O  0.23026352  0.03840635  0.97655164    -0.74600
O262        O  0.30102900  0.03188275  0.02465396    -0.73400
Cu263      Cu  0.23032469  0.46546056  0.99883066     1.04600
Cu264      Cu  0.26679614  0.03751906  0.00074095     1.04300
C265        C  0.29511288  0.99755765  0.03141957     0.92900
C266        C  0.20197721  0.50541243  0.96816588     0.92100
C267        C  0.29896452  0.50536211  0.96808637     0.84200
C268        C  0.19817047  0.99761209  0.03149416     0.90500
O269        O  0.19305962  0.46462681  0.47656772    -0.73300
O270        O  0.27017136  0.47102431  0.52479019    -0.74200
O271        O  0.19610491  0.47106370  0.52471995    -0.62900
O272        O  0.26688631  0.46458095  0.47662449    -0.71300
O273        O  0.30104446  0.03189342  0.47500939    -0.70800
O274        O  0.23025595  0.03837917  0.52311157    -0.62100
O275        O  0.30410350  0.03833573  0.52316320    -0.74600
O276        O  0.22698728  0.03193972  0.47493831    -0.73400
Cu277      Cu  0.23035538  0.46545277  0.50081168     1.04600
Cu278      Cu  0.26679928  0.03751097  0.49892237     1.04300
C279        C  0.19819557  0.99762602  0.46814958     0.92900
C280        C  0.29897825  0.50533518  0.53157063     0.92100
C281        C  0.20200032  0.50537732  0.53149311     0.84200
C282        C  0.29512891  0.99757304  0.46823356     0.90500
O283        O  0.38610868  0.05551647  0.21571600    -0.73300
O284        O  0.38608974  0.05551890  0.28391781    -0.74200
O285        O  0.35554669  0.08619499  0.24981033    -0.62900
O286        O  0.41654682  0.02507747  0.24982208    -0.71300
O287        O  0.47489949  0.08338267  0.24982524    -0.70800
O288        O  0.41389042  0.14449113  0.24981383    -0.62100
O289        O  0.44450279  0.11388144  0.28392217    -0.74600
O290        O  0.44452140  0.11387948  0.21571815    -0.73400
Cu291      Cu  0.38401871  0.05357911  0.24981653     1.04600
Cu292      Cu  0.44645435  0.11596085  0.24982018     1.04300
C293        C  0.41547639  0.08453679  0.20498796     0.92900
C294        C  0.41545307  0.08454018  0.29464927     0.92100
C295        C  0.37509493  0.12497627  0.24980932     0.84200
C296        C  0.45533566  0.04460826  0.24982451     0.90500
C297        C  0.29072727  0.14711333  0.24979657     0.79900
N298        N  0.31144213  0.12676770  0.24980094    -0.78400
C299        C  0.35274857  0.14733044  0.24980284     0.82400
N300        N  0.37331506  0.18862340  0.24979992    -0.78300
C301        C  0.35294936  0.20932156  0.24979528     0.82400
N302        N  0.31168317  0.18836277  0.24979417    -0.80100
O303        O  0.22677494  0.14421985  0.24980333    -0.73300
O304        O  0.10412268  0.08359550  0.24981756    -0.74200
O305        O  0.16526810  0.11378055  0.28392819    -0.62900
O306        O  0.16523870  0.11379329  0.21569217    -0.71300
O307        O  0.16462268  0.05542934  0.21571304    -0.70800
O308        O  0.16465053  0.05541582  0.28389003    -0.62100
O309        O  0.10347998  0.02526846  0.24980853    -0.74600
O310        O  0.22616638  0.08592077  0.24979520    -0.73400
Cu311      Cu  0.16544369  0.11591358  0.24981066     1.04600
Cu312      Cu  0.16475046  0.05350552  0.24980116     1.04300
C313        C  0.24581609  0.12469124  0.24979800     0.92900
C314        C  0.08448464  0.04483970  0.24981528     0.92100
C315        C  0.16462505  0.08441032  0.29463842     0.84200
C316        C  0.16458652  0.08442535  0.20497334     0.90500
O317        O  0.41414425  0.27388556  0.24979576    -0.73300
O318        O  0.47471711  0.39652854  0.24981301    -0.74200
O319        O  0.44460039  0.33537706  0.28389359    -0.62900
O320        O  0.44460017  0.33540599  0.21571482    -0.71300
O321        O  0.38618907  0.33474060  0.21568986    -0.70800
O322        O  0.38618883  0.33471068  0.28392645    -0.62100
O323        O  0.41634440  0.39583880  0.24981712    -0.74600
O324        O  0.35579854  0.27322813  0.24979929    -0.73400
Cu325      Cu  0.44652123  0.33528255  0.24980402     1.04600
Cu326      Cu  0.38406248  0.33453529  0.24980829     1.04300
C327        C  0.37535891  0.25421786  0.24979615     0.92900
C328        C  0.45511529  0.41549395  0.24981725     0.92100
C329        C  0.41557697  0.33537094  0.29463964     0.84200
C330        C  0.41557903  0.33541243  0.20497287     0.90500
N331        N  0.48587638  0.14545275  0.08167333    -0.27600
N332        N  0.47862615  0.11853060  0.06559972    -0.35500
C333        C  0.48852989  0.13715190  0.04535219     0.00700
C334        C  0.50331029  0.17791266  0.04871119     0.06800
C335        C  0.50084473  0.18213896  0.07194690    -0.06300
H336        H  0.48108310  0.12148592  0.02919213     0.07400
H337        H  0.00583324  0.20906610  0.08081975     0.08600
Cu338      Cu  0.44287860  0.05705691  0.06980506     0.44200
Cu339      Cu  0.46648935  0.12885965  0.11492781     0.42000
Cu340      Cu  0.37108731  0.03353059  0.11493332     0.43900
N341        N  0.38137700  0.02132748  0.06561044    -0.35000
N342        N  0.35445750  0.01410526  0.08168696    -0.29200
C343        C  0.31774843  0.99912573  0.07196727    -0.05300
C344        C  0.32195796  0.99662475  0.04873285     0.06900
C345        C  0.36273181  0.01139556  0.04536721     0.00700
H346        H  0.29082055  0.49413834  0.08083794     0.08300
H347        H  0.37839018  0.01881007  0.02920341     0.07400
N348        N  0.40009552  0.06510356  0.14424914    -0.36400
N349        N  0.43490814  0.09988840  0.14424777    -0.28600
C350        C  0.44557229  0.11227866  0.16583418    -0.03900
C351        C  0.41605144  0.08395841  0.18005260     0.04700
C352        C  0.38770363  0.05445620  0.16583622     0.02800
H353        H  0.47286639  0.13978096  0.17078742     0.07900
H354        H  0.36018114  0.02718513  0.17079143     0.06800
N355        N  0.35542102  0.34493392  0.08160318    -0.27600
N356        N  0.38241791  0.36447424  0.06548930    -0.35500
C357        C  0.36375955  0.35554404  0.04525070     0.00700
C358        C  0.32290670  0.32958880  0.04866495     0.06800
C359        C  0.31864135  0.32310976  0.07191746    -0.06300
H360        H  0.37939382  0.36364392  0.02907715     0.07400
H361        H  0.29157868  0.30124774  0.08084289     0.08600
Cu362      Cu  0.44385584  0.39035327  0.06969454     0.44200
Cu363      Cu  0.37191453  0.34240553  0.11488297     0.42000
Cu364      Cu  0.46653976  0.34192816  0.11494781     0.43900
N365        N  0.47902656  0.36435578  0.06559326    -0.35000
N366        N  0.48589478  0.34454901  0.08170833    -0.29200
C367        C  0.50053173  0.32264986  0.07203766    -0.05300
C368        C  0.50319918  0.32939376  0.04880117     0.06900
C369        C  0.48886465  0.35556605  0.04537662     0.00700
H370        H  0.00521559  0.30059894  0.08094833     0.08300
H371        H  0.48169543  0.36388536  0.02919009     0.07400
N372        N  0.43511434  0.33951416  0.14424817    -0.36400
N373        N  0.40057532  0.33966143  0.14421774    -0.28600
C374        C  0.38817553  0.33792553  0.16579107    -0.03900
C375        C  0.41623914  0.33661367  0.18003686     0.04700
C376        C  0.44560079  0.33770734  0.16584727     0.02800
H377        H  0.36084193  0.33779164  0.17071651     0.07900
H378        H  0.47265612  0.33734130  0.17082997     0.06800
N379        N  0.15492447  0.14449163  0.08160825    -0.27600
N380        N  0.13536620  0.11749875  0.06549775    -0.35500
C381        C  0.14427863  0.13614325  0.04525808     0.00700
C382        C  0.17024173  0.17698264  0.04866787     0.06800
C383        C  0.17674349  0.18125431  0.07191909    -0.06300
H384        H  0.13616514  0.12050936  0.02908572     0.07400
H385        H  0.19861978  0.20831044  0.08084037     0.08600
Cu386      Cu  0.10949390  0.05608725  0.06970567     0.44200
Cu387      Cu  0.15748707  0.12801799  0.11488636     0.42000
Cu388      Cu  0.15795632  0.03342174  0.11495297     0.43900
N389        N  0.13546595  0.02089674  0.06560559    -0.35000
N390        N  0.15528104  0.01402795  0.08171912    -0.29200
C391        C  0.17715629  0.99935979  0.07204879    -0.05300
C392        C  0.17039054  0.99667517  0.04881377     0.06900
C393        C  0.14422915  0.01103036  0.04538989     0.00700
H394        H  0.19922786  0.49467888  0.08095935     0.08300
H395        H  0.13590163  0.01819069  0.02920281     0.07400
N396        N  0.16041792  0.06486330  0.14425049    -0.36400
N397        N  0.16027037  0.09938900  0.14422009    -0.28600
C398        C  0.16203413  0.11179843  0.16579279    -0.03900
C399        C  0.16336658  0.08375687  0.18003788     0.04700
C400        C  0.16225448  0.05439721  0.16584864     0.02800
H401        H  0.16217177  0.13912521  0.17071880     0.07900
H402        H  0.16262419  0.02735295  0.17083146     0.06800
N403        N  0.35540426  0.34483349  0.41801224    -0.27600
N404        N  0.38241268  0.36439933  0.43411789    -0.35500
C405        C  0.36377093  0.35549564  0.45436062     0.00700
C406        C  0.32291598  0.32953218  0.45095748     0.06800
C407        C  0.31863272  0.32301963  0.42770729    -0.06300
H408        H  0.37941841  0.36362108  0.47053063     0.07400
H409        H  0.29156394  0.30114370  0.41879100     0.08600
Cu410      Cu  0.44384685  0.39028310  0.42989669     0.44200
Cu411      Cu  0.37188257  0.34227156  0.38473346     0.42000
Cu412      Cu  0.46652351  0.34181178  0.38466455     0.43900
N413        N  0.47902041  0.36429287  0.43401292    -0.35000
N414        N  0.48588595  0.34446777  0.41790722    -0.29200
C415        C  0.50052775  0.32258269  0.42759021    -0.05300
C416        C  0.50320081  0.32935503  0.45082468     0.06900
C417        C  0.48886410  0.35552884  0.45423511     0.00700
H418        H  0.00521185  0.30052226  0.41868987     0.08300
H419        H  0.48169756  0.36386713  0.47041669     0.07400
N420        N  0.43509669  0.33940854  0.35536488    -0.36400
N421        N  0.40055448  0.33955000  0.35539789    -0.28600
C422        C  0.38816040  0.33783447  0.33382496    -0.03900
C423        C  0.41623031  0.33654225  0.31957623     0.04700
C424        C  0.44559015  0.33762543  0.33376389     0.02800
H425        H  0.36082740  0.33770422  0.32890166     0.07900
H426        H  0.47265071  0.33727205  0.32877853     0.06800
N427        N  0.48587455  0.14545404  0.41796191    -0.27600
N428        N  0.47863297  0.11853082  0.43403227    -0.35500
C429        C  0.48854555  0.13715023  0.45428100     0.00700
C430        C  0.50332214  0.17791076  0.45092600     0.06800
C431        C  0.50084597  0.18213902  0.42769156    -0.06300
H432        H  0.48110474  0.12148260  0.47043984     0.07400
H433        H  0.00582763  0.20906605  0.41882245     0.08600
Cu434      Cu  0.44287938  0.05705872  0.42982413     0.44200
Cu435      Cu  0.46646896  0.12886371  0.38470946     0.42000
Cu436      Cu  0.37106274  0.03354250  0.38470612     0.43900
N437        N  0.38137901  0.02134523  0.43402750    -0.35000
N438        N  0.35445133  0.01412430  0.41795537    -0.29200
C439        C  0.31774819  0.99914896  0.42768100    -0.05300
C440        C  0.32197071  0.99665070  0.45091442     0.06900
C441        C  0.36274569  0.01141874  0.45427368     0.00700
H442        H  0.29083122  0.49415787  0.41881116     0.08300
H443        H  0.37841290  0.01883082  0.47043503     0.07400
N444        N  0.40006420  0.06511196  0.35538840    -0.36400
N445        N  0.43487888  0.09989475  0.35539037    -0.28600
C446        C  0.44554282  0.11228339  0.33380452    -0.03900
C447        C  0.41602040  0.08396473  0.31958502     0.04700
C448        C  0.38767086  0.05446439  0.33380066     0.02800
H449        H  0.47284015  0.13978273  0.32885219     0.07900
H450        H  0.36014807  0.02719351  0.32884440     0.06800
N451        N  0.15501009  0.14449401  0.41800087    -0.27600
N452        N  0.13542462  0.11749731  0.43410384    -0.35500
C453        C  0.14431464  0.13613386  0.45434636     0.00700
C454        C  0.17029091  0.17697277  0.45094548     0.06800
C455        C  0.17682451  0.18125188  0.42769723    -0.06300
H456        H  0.13617651  0.12049393  0.47051598     0.07400
H457        H  0.19871794  0.20830893  0.41878423     0.08600
Cu458      Cu  0.10954486  0.05608830  0.42988358     0.44200
Cu459      Cu  0.15760276  0.12802114  0.38472749     0.42000
Cu460      Cu  0.15804072  0.03340478  0.38465757     0.43900
N461        N  0.13552395  0.02090910  0.43400247    -0.35000
N462        N  0.15534960  0.01403198  0.41789891    -0.29200
C463        C  0.17721852  0.99936906  0.42758369    -0.05300
C464        C  0.17043786  0.99669848  0.45081720     0.06900
C465        C  0.14427509  0.01105583  0.45422536     0.00700
H466        H  0.19930815  0.49468152  0.41868537     0.08300
H467        H  0.13593409  0.01822215  0.47040643     0.07400
N468        N  0.16050009  0.06484715  0.35535992    -0.36400
N469        N  0.16036400  0.09937882  0.35539455    -0.28600
C470        C  0.16211551  0.11178730  0.33382368    -0.03900
C471        C  0.16342824  0.08374027  0.31957411     0.04700
C472        C  0.16231751  0.05437681  0.33375924     0.02800
H473        H  0.16225583  0.13911685  0.32890194     0.07900
H474        H  0.16267246  0.02732653  0.32877189     0.06800
C475        C  0.47765676  0.02227890  0.24982478     0.79900
N476        N  0.01895036  0.04284331  0.24982282    -0.78400
C477        C  0.03963933  0.02248374  0.24981976     0.82400
N478        N  0.01870209  0.48125971  0.24981997    -0.78300
C479        C  0.47746074  0.46032431  0.24982096     0.82400
N480        N  0.45708299  0.48099814  0.24982232    -0.80100
C481        C  0.01923215  0.98050325  0.74982296     0.79900
N482        N  0.03979917  0.52178276  0.74981943    -0.78400
C483        C  0.01942397  0.54245873  0.74981617     0.82400
N484        N  0.47818230  0.52152545  0.74981690    -0.78300
C485        C  0.45725165  0.98030111  0.74982073     0.82400
N486        N  0.47793903  0.95994038  0.74982387    -0.80100
O487        O  0.05236393  0.88890962  0.78394217    -0.73300
O488        O  0.05237648  0.88888886  0.71573620    -0.74200
O489        O  0.08299607  0.85828918  0.74984704    -0.62900
O490        O  0.02198609  0.91939812  0.74983087    -0.71300
O491        O  0.08033939  0.97770288  0.74983036    -0.70800
O492        O  0.14133868  0.91658603  0.74984805    -0.62100
O493        O  0.11078877  0.94725142  0.71573575    -0.74600
O494        O  0.11077518  0.94727328  0.78394307    -0.73400
Cu495      Cu  0.05043037  0.88681921  0.74983924     1.04600
Cu496      Cu  0.11286520  0.94920094  0.74983946     1.04300
C497        C  0.08140444  0.91825706  0.79467233     0.92900
C498        C  0.08142321  0.91822781  0.70500607     0.92100
C499        C  0.12179182  0.87780479  0.74984842     0.84200
C500        C  0.04155093  0.95817260  0.74982812     0.90500
C501        C  0.20616362  0.85567138  0.74984469     0.79900
N502        N  0.18544732  0.87601601  0.74984924    -0.78400
C503        C  0.14414046  0.85545193  0.74984756     0.82400
N504        N  0.12357557  0.81415886  0.74984007    -0.78300
C505        C  0.14394281  0.79346195  0.74983490     0.82400
N506        N  0.18520882  0.81442207  0.74983756    -0.80100
O507        O  0.08274989  0.72889711  0.74982161    -0.73300
O508        O  0.02217353  0.60625626  0.74981215    -0.74200
O509        O  0.05228266  0.66738027  0.78390415    -0.62900
O510        O  0.05230737  0.66739079  0.71572815    -0.71300
O511        O  0.11071805  0.66805345  0.71571120    -0.70800
O512        O  0.11069611  0.66804841  0.78393250    -0.62100
O513        O  0.08054443  0.60694191  0.74981935    -0.74600
O514        O  0.14109612  0.72955544  0.74982601    -0.73400
Cu515      Cu  0.05037294  0.66750053  0.74981599     1.04600
Cu516      Cu  0.11283200  0.66824644  0.74982235     1.04300
C517        C  0.12153503  0.74856538  0.74982678     0.92900
C518        C  0.04177308  0.58728893  0.74981539     0.92100
C519        C  0.08129985  0.66736620  0.79464611     0.84200
C520        C  0.08132804  0.66737442  0.70499178     0.90500
O521        O  0.39276965  0.91918930  0.74983094    -0.73300
O522        O  0.27011665  0.85856481  0.74984408    -0.74200
O523        O  0.33163118  0.88897581  0.71572625    -0.62900
O524        O  0.33166030  0.88901589  0.78394939    -0.71300
O525        O  0.33227932  0.94738205  0.78391968    -0.70800
O526        O  0.33224268  0.94733827  0.71574338    -0.62100
O527        O  0.27072534  0.91686395  0.74983996    -0.74600
O528        O  0.39341137  0.97751607  0.74982263    -0.73400
Cu529      Cu  0.33144929  0.88686970  0.74983809     1.04600
Cu530      Cu  0.33214169  0.94927811  0.74983115     1.04300
C531        C  0.41240692  0.95794523  0.74982460     0.92900
C532        C  0.25107533  0.87809360  0.74984339     0.92100
C533        C  0.33228500  0.91834159  0.70500682     0.84200
C534        C  0.33232958  0.91839587  0.79466247     0.90500
N535        N  0.34224694  0.85827316  0.58169723    -0.27600
N536        N  0.36173506  0.88522920  0.56556088    -0.35500
C537        C  0.35282066  0.86651704  0.54534035     0.00700
C538        C  0.32692682  0.82567365  0.54878975     0.06800
C539        C  0.32047230  0.82147099  0.57204520    -0.06300
H540        H  0.36087104  0.88209876  0.52915270     0.07400
H541        H  0.29864281  0.79442858  0.58099361     0.08600
Cu542      Cu  0.38749232  0.94664636  0.56971109     0.44200
Cu543      Cu  0.33966895  0.87481433  0.61495513     0.42000
Cu544      Cu  0.33910771  0.96936713  0.61498479     0.43900
N545        N  0.36159943  0.98191929  0.56563905    -0.35000
N546        N  0.34181953  0.98881093  0.58176380    -0.29200
C547        C  0.31998586  0.00354176  0.57211221    -0.05300
C548        C  0.32674025  0.00624581  0.54887674     0.06900
C549        C  0.35285469  0.99183730  0.54543362     0.00700
H550        H  0.29799438  0.50827540  0.58103067     0.08300
H551        H  0.36115379  0.98467354  0.52923873     0.07400
N552        N  0.33657865  0.93791908  0.64428621    -0.36400
N553        N  0.33676027  0.90341109  0.64426855    -0.28600
C554        C  0.33493981  0.89099254  0.66584257    -0.03900
C555        C  0.33353502  0.91901023  0.68007447     0.04700
C556        C  0.33466432  0.94836619  0.66587761     0.02800
H557        H  0.33482068  0.86367975  0.67077865     0.07900
H558        H  0.33426035  0.97539760  0.67085035     0.06800
N559        N  0.01092424  0.85717273  0.58170719    -0.27600
N560        N  0.01820038  0.88405513  0.56560621    -0.35500
C561        C  0.00821370  0.86536284  0.54537911     0.00700
C562        C  0.99335846  0.82459720  0.54877723     0.06800
C563        C  0.99586304  0.82044346  0.57201779    -0.06300
H564        H  0.01566311  0.88097563  0.52920303     0.07400
H565        H  0.49083909  0.79352795  0.58091752     0.08600
Cu566      Cu  0.05407926  0.94553498  0.56974647     0.44200
Cu567      Cu  0.03039161  0.87385872  0.61494612     0.42000
Cu568      Cu  0.12578964  0.96921843  0.61494374     0.43900
N569        N  0.11558241  0.98140637  0.56560536    -0.35000
N570        N  0.14247829  0.98868895  0.58170700    -0.29200
C571        C  0.17922556  0.00376858  0.57201982    -0.05300
C572        C  0.17506778  0.00627486  0.54877987     0.06900
C573        C  0.13428290  0.99140316  0.54537931     0.00700
H574        H  0.20617602  0.50879470  0.58092233     0.08300
H575        H  0.11866601  0.98396175  0.52920198     0.07400
N576        N  0.09679164  0.93764390  0.64426256    -0.36400
N577        N  0.06198484  0.90285264  0.64426349    -0.27800
C578        C  0.05132924  0.89046811  0.66585123    -0.03900
C579        C  0.08084861  0.91879726  0.68006892     0.04700
C580        C  0.10918723  0.94829967  0.66584969     0.02800
H581        H  0.02404052  0.86296335  0.67080622     0.07900
H582        H  0.13670545  0.97557789  0.67080327     0.06800
N583        N  0.01088914  0.85722873  0.91796555    -0.27600
N584        N  0.01817537  0.88409710  0.93407786    -0.35500
C585        C  0.00819867  0.86538588  0.95429882     0.00700
C586        C  0.99334079  0.82462323  0.95088426     0.06800
C587        C  0.99583217  0.82049038  0.92764090    -0.06300
H588        H  0.01565603  0.88098306  0.97048031     0.07400
H589        H  0.49080234  0.79358276  0.91872859     0.08600
Cu590      Cu  0.05405390  0.94558125  0.92995590     0.44200
Cu591      Cu  0.03033981  0.87393866  0.88472845     0.42000
Cu592      Cu  0.12573240  0.96929429  0.88473361     0.43900
N593        N  0.11556100  0.98145776  0.93408158    -0.35000
N594        N  0.14244310  0.98874995  0.91797056    -0.29200
C595        C  0.17919924  0.00382564  0.92764678    -0.05300
C596        C  0.17506220  0.00632006  0.95088941     0.06900
C597        C  0.13428021  0.99144593  0.95430292     0.00700
H598        H  0.20611806  0.50887687  0.91873702     0.08300
H599        H  0.11867815  0.98399510  0.97048448     0.07400
N600        N  0.09674260  0.93771327  0.85541430    -0.36400
N601        N  0.06193619  0.90292208  0.85541261    -0.28600
C602        C  0.05128992  0.89052475  0.83382539    -0.03900
C603        C  0.08081567  0.91884540  0.81960880     0.04700
C604        C  0.10914778  0.94835669  0.83382807     0.02800
H605        H  0.02400540  0.86301486  0.82887012     0.07900
H606        H  0.13667006  0.97563013  0.82887525     0.06800
N607        N  0.34230227  0.85834179  0.91796731    -0.27600
N608        N  0.36178714  0.88528130  0.93411275    -0.35500
C609        C  0.35285700  0.86654977  0.95432693     0.00700
C610        C  0.32695482  0.82571109  0.95086341     0.06800
C611        C  0.32051286  0.82153199  0.92760660    -0.06300
H612        H  0.36090061  0.88211625  0.97051984     0.07400
H613        H  0.29868208  0.79450100  0.91864854     0.08600
Cu614      Cu  0.38755647  0.94670356  0.92998076     0.44200
Cu615      Cu  0.33974682  0.87491334  0.88471477     0.42000
Cu616      Cu  0.33924244  0.96948819  0.88468435     0.43900
N617        N  0.36166308  0.98197880  0.93404402    -0.35000
N618        N  0.34191218  0.98889404  0.91791170    -0.29200
C619        C  0.32006618  0.00361710  0.92755674    -0.05300
C620        C  0.32678196  0.00629140  0.95079568     0.06900
C621        C  0.35288692  0.99187409  0.95424745     0.00700
H622        H  0.29805090  0.50834277  0.91862424     0.08300
H623        H  0.36115814  0.98468927  0.97044470     0.07400
N624        N  0.33668686  0.93802823  0.85538098    -0.36400
N625        N  0.33684696  0.90350946  0.85540118    -0.28600
C626        C  0.33500426  0.89107391  0.83382896    -0.03900
C627        C  0.33360646  0.91909064  0.81959455     0.04700
C628        C  0.33476385  0.94846543  0.83378854     0.02800
H629        H  0.33486148  0.86374728  0.82889577     0.07900
H630        H  0.33436935  0.97550014  0.82881324     0.06800
N631        N  0.14148975  0.65755999  0.58167959    -0.27600
N632        N  0.11453355  0.63807713  0.56553764    -0.35500
C633        C  0.13326057  0.64701603  0.54531967     0.00700
C634        C  0.17411412  0.67291931  0.54877707     0.06800
C635        C  0.17830717  0.67935485  0.57203410    -0.06300
H636        H  0.11767910  0.63896750  0.52912918     0.07400
H637        H  0.20535128  0.70117916  0.58098903     0.08600
Cu638      Cu  0.05308527  0.61227443  0.56968240     0.44200
Cu639      Cu  0.12492268  0.66009298  0.61493864     0.42000
Cu640      Cu  0.03029044  0.66056662  0.61496993     0.43900
N641        N  0.01778062  0.63813810  0.56561621    -0.35000
N642        N  0.01086798  0.65788918  0.58174597    -0.29200
C643        C  0.99614121  0.67972586  0.57209863    -0.05300
C644        C  0.99345921  0.67300231  0.54886056     0.06900
C645        C  0.00787736  0.64690250  0.54541198     0.00700
H646        H  0.49141537  0.70173634  0.58102533     0.08300
H647        H  0.01506638  0.63863183  0.52921584     0.07400
N648        N  0.06175105  0.66309642  0.64427100    -0.36400
N649        N  0.09628905  0.66294803  0.64425318    -0.28600
C650        C  0.10871086  0.66476414  0.66582773    -0.03900
C651        C  0.08066224  0.66613052  0.68005960     0.04700
C652        C  0.05128594  0.66498427  0.66586270     0.02800
H653        H  0.13604555  0.66490855  0.67076359     0.07900
H654        H  0.02423235  0.66536150  0.67083495     0.06800
N655        N  0.14148871  0.65759019  0.91795342    -0.27600
N656        N  0.11453993  0.63809403  0.93409534    -0.35500
C657        C  0.13327463  0.64702523  0.95431155     0.00700
C658        C  0.17412571  0.67293917  0.95085278     0.06800
C659        C  0.17830840  0.67938778  0.92759693    -0.06300
H660        H  0.11769890  0.63896757  0.97050304     0.07400
H661        H  0.20534640  0.70122287  0.91864251     0.08600
Cu662      Cu  0.05308991  0.61228993  0.92995542     0.44200
Cu663      Cu  0.12490546  0.66013224  0.88469999     0.42000
Cu664      Cu  0.03024343  0.66054612  0.88466633     0.43900
N665        N  0.01777241  0.63814009  0.93402365    -0.35000
N666        N  0.01083847  0.65787459  0.91789370    -0.29200
C667        C  0.99610469  0.67970500  0.92754195    -0.05300
C668        C  0.99344110  0.67299544  0.95078086     0.06900
C669        C  0.00787684  0.64691007  0.95422878     0.00700
H670        H  0.49136233  0.70170337  0.91861473     0.08300
H671        H  0.01508142  0.63865309  0.97042438     0.07400
N672        N  0.06170891  0.66308815  0.85536528    -0.36400
N673        N  0.09625804  0.66296171  0.85538574    -0.28600
C674        C  0.10868342  0.66477922  0.83381250    -0.03900
C675        C  0.08062631  0.66612399  0.81957807     0.04700
C676        C  0.05124042  0.66496376  0.83377230     0.02800
H677        H  0.13602722  0.66493993  0.82887927     0.07900
H678        H  0.02417840  0.66532328  0.82879739     0.06800
O679        O  0.22956845  0.69602227  0.97627583    -0.73300
O680        O  0.30117816  0.77322108  0.02444556    -0.74200
O681        O  0.22662870  0.69869955  0.02444466    -0.62900
O682        O  0.30385406  0.77027876  0.97627737    -0.71300
O683        O  0.27049721  0.80390184  0.97503756    -0.70800
O684        O  0.19327540  0.73232616  0.02319961    -0.62100
O685        O  0.26753525  0.80655829  0.02320137    -0.74600
O686        O  0.19593576  0.72936939  0.97503328    -0.73400
Cu687      Cu  0.26648890  0.73337360  0.00048343     1.04600
Cu688      Cu  0.23062979  0.76921884  0.99899162     1.04300
C689        C  0.20140349  0.70082662  0.96808994     0.92900
C690        C  0.29568801  0.80174584  0.03139701     0.92100
C691        C  0.19809368  0.70418781  0.03139655     0.84200
C692        C  0.29905133  0.79843669  0.96809484     0.90500
O693        O  0.03522688  0.80676786  0.02303531    -0.73300
O694        O  0.02872476  0.72962773  0.97482213    -0.74200
O695        O  0.02864704  0.80364783  0.97489342    -0.62900
O696        O  0.53530838  0.73298339  0.02298048    -0.71300
O697        O  0.46797349  0.69879011  0.02465505    -0.70800
O698        O  0.46131232  0.76946613  0.97656438    -0.62100
O699        O  0.46139069  0.69565942  0.97650974    -0.74600
O700        O  0.46789335  0.77280205  0.02472912    -0.73400
Cu701      Cu  0.03434851  0.76945673  0.99879456     1.04600
Cu702      Cu  0.46226794  0.73297749  0.00074975     1.04300
C703        C  0.50223439  0.80160868  0.03148183     0.92900
C704        C  0.99438756  0.70080877  0.96807465     0.92100
C705        C  0.99429521  0.79773620  0.96815621     0.84200
C706        C  0.50233120  0.70472563  0.03139915     0.90500
O707        O  0.30384964  0.77024995  0.52336885    -0.73300
O708        O  0.22664581  0.69866302  0.47519230    -0.74200
O709        O  0.30119362  0.77317963  0.47519634    -0.62900
O710        O  0.22956571  0.69599656  0.52336296    -0.71300
O711        O  0.19593118  0.72934263  0.52459164    -0.70800
O712        O  0.26755197  0.80651881  0.47642749    -0.62100
O713        O  0.19329415  0.73229222  0.47642408    -0.74600
O714        O  0.27049361  0.80387456  0.52459530    -0.73400
Cu715      Cu  0.26649570  0.73334095  0.49915821     1.04600
Cu716      Cu  0.23063713  0.76918763  0.50063576     1.04300
C717        C  0.29904121  0.79840712  0.53154795     0.92900
C718        C  0.19811685  0.70415352  0.46823138     0.92100
C719        C  0.29570212  0.80169820  0.46823574     0.84200
C720        C  0.20139683  0.70080213  0.53154112     0.90500
O721        O  0.53532103  0.73298303  0.47665884    -0.73300
O722        O  0.02866222  0.80364560  0.52474955    -0.74200
O723        O  0.02874138  0.72962962  0.52481801    -0.62900
O724        O  0.03523421  0.80676165  0.47660363    -0.71300
O725        O  0.46790063  0.77279399  0.47491110    -0.70800
O726        O  0.46140738  0.69565794  0.52312854    -0.62100
O727        O  0.46132741  0.76946133  0.52307978    -0.74600
O728        O  0.46798603  0.69878817  0.47498262    -0.73400
Cu729      Cu  0.03436143  0.76945569  0.50084576     1.04600
Cu730      Cu  0.46228080  0.73297395  0.49889039     1.04300
C731        C  0.50234418  0.70472672  0.46823779     0.92900
C732        C  0.99431093  0.79772775  0.53149135     0.92100
C733        C  0.99440486  0.70081084  0.53156504     0.84200
C734        C  0.50224016  0.80159552  0.46815459     0.90500
O735        O  0.26684766  0.46456810  0.02301693    -0.73300
O736        O  0.19608572  0.97109405  0.97492521    -0.74200
O737        O  0.27015417  0.97105096  0.97485727    -0.62900
O738        O  0.19301659  0.96461886  0.02307141    -0.71300
O739        O  0.22697701  0.53193057  0.02471970    -0.70800
O740        O  0.30411165  0.53835857  0.97650072    -0.62100
O741        O  0.23026195  0.53840523  0.97655199    -0.74600
O742        O  0.30103336  0.53188032  0.02465029    -0.73400
Cu743      Cu  0.23032572  0.96546233  0.99883154     1.04600
Cu744      Cu  0.26679763  0.53751730  0.00073941     1.04300
C745        C  0.29511684  0.49755497  0.03141569     0.92900
C746        C  0.20198070  0.00541330  0.96816471     0.92100
C747        C  0.29896880  0.00536634  0.96808951     0.84200
C748        C  0.19817668  0.49761333  0.03149590     0.90500
O749        O  0.19303441  0.96462735  0.47656701    -0.73300
O750        O  0.27014157  0.97102328  0.52479159    -0.74200
O751        O  0.19607674  0.97106576  0.52471876    -0.62900
O752        O  0.26686030  0.96458014  0.47662543    -0.71300
O753        O  0.30107128  0.53189433  0.47500989    -0.70800
O754        O  0.23028020  0.53837699  0.52311196    -0.62100
O755        O  0.30412940  0.53833687  0.52316321    -0.74600
O756        O  0.22701307  0.53193905  0.47493825    -0.73400
Cu757      Cu  0.23032806  0.96545288  0.50081180     1.04600
Cu758      Cu  0.26682481  0.53751072  0.49892261     1.04300
C759        C  0.19822110  0.49762535  0.46814978     0.92900
C760        C  0.29894961  0.00533365  0.53157176     0.92100
C761        C  0.20197408  0.00538008  0.53149199     0.84200
C762        C  0.29515554  0.49757415  0.46823341     0.90500
O763        O  0.38610230  0.55551361  0.21571312    -0.73300
O764        O  0.38608624  0.55551771  0.28391510    -0.74200
O765        O  0.35554158  0.58619349  0.24980798    -0.62900
O766        O  0.41654183  0.52507569  0.24981929    -0.71300
O767        O  0.47489419  0.58338117  0.24982187    -0.70800
O768        O  0.41388538  0.64448950  0.24981063    -0.62100
O769        O  0.44449866  0.61388088  0.28391864    -0.74600
O770        O  0.44451488  0.61387671  0.21571472    -0.73400
Cu771      Cu  0.38401362  0.55357727  0.24981383     1.04600
Cu772      Cu  0.44644900  0.61595914  0.24981672     1.04300
C773        C  0.41546980  0.58453362  0.20498478     0.92900
C774        C  0.41544986  0.58453949  0.29464614     0.92100
C775        C  0.37508995  0.62497482  0.24980686     0.84200
C776        C  0.45533066  0.54460677  0.24982174     0.90500
C777        C  0.29072334  0.64711363  0.24979755     0.79900
N778        N  0.31143764  0.62676738  0.24980077    -0.78400
C779        C  0.35274403  0.64732951  0.24980132     0.82400
N780        N  0.37331103  0.68862246  0.24979826    -0.78300
C781        C  0.35294592  0.70932125  0.24979473     0.82400
N782        N  0.31167974  0.68836305  0.24979489    -0.80100
O783        O  0.22677112  0.64422068  0.24980635    -0.73300
O784        O  0.10411861  0.58359652  0.24982018    -0.74200
O785        O  0.16526368  0.61378009  0.28393130    -0.62900
O786        O  0.16523523  0.61379569  0.21569517    -0.71300
O787        O  0.16461953  0.55543189  0.21571536    -0.70800
O788        O  0.16464721  0.55541592  0.28389225    -0.62100
O789        O  0.10347650  0.52526976  0.24981063    -0.74600
O790        O  0.22616251  0.58592156  0.24979722    -0.73400
Cu791      Cu  0.16543966  0.61591455  0.24981368     1.04600
Cu792      Cu  0.16474688  0.55350668  0.24980336     1.04300
C793        C  0.24581223  0.62469196  0.24980014     0.92900
C794        C  0.08448088  0.54484071  0.24981737     0.92100
C795        C  0.16462147  0.58440988  0.29464111     0.84200
C796        C  0.16458402  0.58442854  0.20497600     0.90500
O797        O  0.41414158  0.77388443  0.24979521    -0.73300
O798        O  0.47471782  0.89652757  0.24981232    -0.74200
O799        O  0.44459890  0.83537613  0.28389306    -0.62900
O800        O  0.44459924  0.83540469  0.21571414    -0.71300
O801        O  0.38618936  0.83474171  0.21568927    -0.70800
O802        O  0.38618799  0.83471101  0.28392563    -0.62100
O803        O  0.41634609  0.89583976  0.24981663    -0.74600
O804        O  0.35579675  0.77322872  0.24979845    -0.73400
Cu805      Cu  0.44652002  0.83528139  0.24980340     1.04600
Cu806      Cu  0.38406241  0.83453614  0.24980758     1.04300
C807        C  0.37535627  0.75421756  0.24979549     0.92900
C808        C  0.45511705  0.91549400  0.24981672     0.92100
C809        C  0.41557560  0.83537052  0.29463897     0.84200
C810        C  0.41557864  0.83541224  0.20497225     0.90500
N811        N  0.48587481  0.64545103  0.08167129    -0.27600
N812        N  0.47862894  0.61853061  0.06559735    -0.35500
C813        C  0.48853468  0.63715357  0.04535029     0.00700
C814        C  0.50331167  0.67791357  0.04871006     0.06800
C815        C  0.50084216  0.68213764  0.07194561    -0.06300
H816        H  0.48109106  0.62148889  0.02918985     0.07400
H817        H  0.00582734  0.70906335  0.08081872     0.08600
Cu818      Cu  0.44288334  0.55705635  0.06980116     0.44200
Cu819      Cu  0.46648354  0.62885517  0.11492486     0.42000
Cu820      Cu  0.37108870  0.53352145  0.11492973     0.43900
N821        N  0.38138206  0.52132517  0.06560594    -0.35000
N822        N  0.35446166  0.51409903  0.08168259    -0.29200
C823        C  0.31775265  0.49911864  0.07196275    -0.05300
C824        C  0.32196300  0.49662147  0.04872812     0.06900
C825        C  0.36273744  0.51139527  0.04536248     0.00700
H826        H  0.29081728  0.99414814  0.08084222     0.08300
H827        H  0.37839624  0.51881284  0.02919885     0.07400
N828        N  0.40009215  0.56509674  0.14424596    -0.36400
N829        N  0.43490260  0.59988368  0.14424463    -0.28600
C830        C  0.44556487  0.61227564  0.16583094    -0.03900
C831        C  0.41604502  0.58395437  0.18004938     0.04700
C832        C  0.38769971  0.55444972  0.16583302     0.02800
H833        H  0.47285722  0.63977983  0.17078411     0.07900
H834        H  0.36017874  0.52717702  0.17078827     0.06800
N835        N  0.35542150  0.84493853  0.08160352    -0.27600
N836        N  0.38241878  0.86447782  0.06548966    -0.35500
C837        C  0.36376060  0.85554768  0.04525104     0.00700
C838        C  0.32290756  0.82959357  0.04866522     0.06800
C839        C  0.31864177  0.82311515  0.07191777    -0.06300
H840        H  0.37939507  0.86364650  0.02907750     0.07400
H841        H  0.29157893  0.80125391  0.08084317     0.08600
Cu842      Cu  0.44385653  0.89035445  0.06969451     0.44200
Cu843      Cu  0.37191381  0.84240914  0.11488331     0.42000
Cu844      Cu  0.46653567  0.84192513  0.11494660     0.43900
N845        N  0.47902642  0.86435601  0.06559252    -0.35000
N846        N  0.48589277  0.84454755  0.08170739    -0.29200
C847        C  0.50052980  0.82264859  0.07203662    -0.05300
C848        C  0.50319934  0.82939420  0.04880028     0.06900
C849        C  0.48886592  0.85556751  0.04537592     0.00700
H850        H  0.00521241  0.80059650  0.08094711     0.08300
H851        H  0.48169822  0.86388838  0.02918923     0.07400
N852        N  0.43511184  0.83951264  0.14424740    -0.36400
N853        N  0.40057406  0.83966232  0.14421749    -0.28600
C854        C  0.38817527  0.83792706  0.16579093    -0.03900
C855        C  0.41623823  0.83661325  0.18003629     0.04700
C856        C  0.44559855  0.83770494  0.16584635     0.02800
H857        H  0.36084257  0.83779511  0.17071681     0.07900
H858        H  0.47265288  0.83733708  0.17082864     0.06800
N859        N  0.15492854  0.64449714  0.08161029    -0.27600
N860        N  0.13537295  0.61750268  0.06550009    -0.35500
C861        C  0.14428485  0.63614572  0.04525999     0.00700
C862        C  0.17024474  0.67698595  0.04866917     0.06800
C863        C  0.17674517  0.68125957  0.07192047    -0.06300
H864        H  0.13617347  0.62051095  0.02908821     0.07400
H865        H  0.19861947  0.70831736  0.08084152     0.08600
Cu866      Cu  0.10950517  0.55609202  0.06970909     0.44200
Cu867      Cu  0.15749109  0.62802585  0.11488905     0.42000
Cu868      Cu  0.15797435  0.53343563  0.11495534     0.43900
N869        N  0.13547748  0.52090185  0.06560928    -0.35000
N870        N  0.15529642  0.51403726  0.08172229    -0.29200
C871        C  0.17717081  0.49936837  0.07205165    -0.05300
C872        C  0.17040002  0.49667849  0.04881700     0.06900
C873        C  0.14423685  0.51103163  0.04539367     0.00700
H874        H  0.19921114  0.99466795  0.08095718     0.08300
H875        H  0.13590553  0.51818820  0.02920661     0.07400
N876        N  0.16042715  0.56487330  0.14425285    -0.36400
N877        N  0.16027450  0.59939646  0.14422268    -0.28600
C878        C  0.16203296  0.61180298  0.16579557    -0.03900
C879        C  0.16336695  0.58376204  0.18004051     0.04700
C880        C  0.16226154  0.55440598  0.16585099     0.02800
H881        H  0.16216591  0.63912731  0.17072180     0.07900
H882        H  0.16263443  0.52736312  0.17083366     0.06800
N883        N  0.35539730  0.84482550  0.41801115    -0.27600
N884        N  0.38240520  0.86439305  0.43411678    -0.35500
C885        C  0.36376349  0.85548816  0.45435948     0.00700
C886        C  0.32290914  0.82952218  0.45095636     0.06800
C887        C  0.31862613  0.82300926  0.42770623    -0.06300
H888        H  0.37941104  0.86361516  0.47052962     0.07400
H889        H  0.29155773  0.80113188  0.41878989     0.08600
Cu890      Cu  0.44383982  0.89028188  0.42989582     0.44200
Cu891      Cu  0.37187655  0.84226578  0.38473241     0.42000
Cu892      Cu  0.46652095  0.84181329  0.38466439     0.43900
N893        N  0.47901709  0.86429583  0.43401259    -0.35000
N894        N  0.48588442  0.84447169  0.41790712    -0.29200
C895        C  0.50052843  0.82258871  0.42759040    -0.05300
C896        C  0.50320094  0.82936136  0.45082488     0.06900
C897        C  0.48886162  0.85553312  0.45423490     0.00700
H898        H  0.00521411  0.80052932  0.41869035     0.08300
H899        H  0.48169363  0.86387060  0.47041650     0.07400
N900        N  0.43509400  0.83940821  0.35536438    -0.36400
N901        N  0.40055059  0.83954724  0.35539710    -0.28600
C902        C  0.38815683  0.83783141  0.33382407    -0.03900
C903        C  0.41622822  0.83654142  0.31957557     0.04700
C904        C  0.44558863  0.83762627  0.33376346     0.02800
H905        H  0.36082306  0.83769933  0.32890060     0.07900
H906        H  0.47265009  0.83727494  0.32877835     0.06800
N907        N  0.48587625  0.64546591  0.41795740    -0.27600
N908        N  0.47864557  0.61854447  0.43402701    -0.35500
C909        C  0.48855987  0.63716385  0.45427576     0.00700
C910        C  0.50332630  0.67792276  0.45092147     0.06800
C911        C  0.50084202  0.68214981  0.42768756    -0.06300
H912        H  0.48112685  0.62149628  0.47043450     0.07400
H913        H  0.00581496  0.70907456  0.41881950     0.08600
Cu914      Cu  0.44290304  0.55707136  0.42981872     0.44200
Cu915      Cu  0.46646568  0.62887217  0.38470573     0.42000
Cu916      Cu  0.37107616  0.53353436  0.38470323     0.43900
N917        N  0.38140407  0.52135070  0.43402495    -0.35000
N918        N  0.35447264  0.51412115  0.41795364    -0.29200
C919        C  0.31777035  0.49914277  0.42768073    -0.05300
C920        C  0.32199743  0.49665217  0.45091427     0.06900
C921        C  0.36277395  0.51142727  0.45427203     0.00700
H922        H  0.29081208  0.99417057  0.41881082     0.08300
H923        H  0.37844380  0.51884607  0.47043280     0.07400
N924        N  0.40006913  0.56510883  0.35538532    -0.36400
N925        N  0.43487783  0.59989758  0.35538695    -0.28600
C926        C  0.44553788  0.61228796  0.33380099    -0.03900
C927        C  0.41601891  0.58396436  0.31958186     0.04700
C928        C  0.38767560  0.55445928  0.33379779     0.02800
H929        H  0.47283013  0.63979184  0.32884833     0.07900
H930        H  0.36015706  0.52718356  0.32884184     0.06800
N931        N  0.15499979  0.64448013  0.41800564    -0.27600
N932        N  0.13542300  0.61748181  0.43410924    -0.35500
C933        C  0.14431517  0.63611812  0.45435187     0.00700
C934        C  0.17028364  0.67695838  0.45095038     0.06800
C935        C  0.17681035  0.68123880  0.42770164    -0.06300
H936        H  0.13618436  0.62047826  0.47052137     0.07400
H937        H  0.19869755  0.70829786  0.41878775     0.08600
Cu938      Cu  0.10955348  0.55607383  0.42988885     0.44200
Cu939      Cu  0.15759016  0.62801111  0.38473120     0.42000
Cu940      Cu  0.15805899  0.53341081  0.38466026     0.43900
N941        N  0.13554242  0.52090312  0.43400517    -0.35000
N942        N  0.15537265  0.51403446  0.41790066    -0.29200
C943        C  0.17724616  0.49937537  0.42758394    -0.05300
C944        C  0.17046316  0.49669776  0.45081740     0.06900
C945        C  0.14429458  0.51104763  0.45422711     0.00700
H946        H  0.19927708  0.99466887  0.41868593     0.08300
H947        H  0.13594956  0.51820734  0.47040897     0.07400
N948        N  0.16050580  0.56484845  0.35536262    -0.36400
N949        N  0.16035877  0.59937455  0.35539765    -0.28600
C950        C  0.16210528  0.61178165  0.33382689    -0.03900
C951        C  0.16342571  0.58373929  0.31957687     0.04700
C952        C  0.16232492  0.55438013  0.33376169     0.02800
H953        H  0.16223689  0.63910698  0.32890551     0.07900
H954        H  0.16268825  0.52733436  0.32877395     0.06800
C955        C  0.47765238  0.52227802  0.24982320     0.79900
N956        N  0.01894596  0.54284311  0.24982249    -0.78400
C957        C  0.03963564  0.52248428  0.24982094     0.82400
N958        N  0.01870507  0.98125913  0.24981858    -0.78300
C959        C  0.47746358  0.96032442  0.24982067     0.82400
N960        N  0.45708668  0.98099907  0.24982349    -0.80100
C961        C  0.51922750  0.48050310  0.74982298     0.79900
N962        N  0.53980403  0.02178299  0.74981925    -0.78400
C963        C  0.51942884  0.04245904  0.74981587     0.82400
N964        N  0.97818723  0.02152584  0.74981675    -0.78300
C965        C  0.95724684  0.48030059  0.74982065     0.82400
N966        N  0.97793442  0.45994006  0.74982380    -0.80100
O967        O  0.55236162  0.38891175  0.78394303    -0.73300
O968        O  0.55237125  0.38888885  0.71573619    -0.74200
O969        O  0.58299168  0.35828949  0.74984725    -0.62900
O970        O  0.52198188  0.41939840  0.74983143    -0.71300
O971        O  0.58033508  0.47770327  0.74982972    -0.70800
O972        O  0.64133439  0.41658619  0.74984825    -0.62100
O973        O  0.61078424  0.44725061  0.71573537    -0.74600
O974        O  0.61077218  0.44727601  0.78394305    -0.73400
Cu975      Cu  0.55042632  0.38681986  0.74983970     1.04600
Cu976      Cu  0.61286113  0.44920154  0.74983922     1.04300
C977        C  0.58140207  0.41826010  0.79467284     0.92900
C978        C  0.58141834  0.41822716  0.70500578     0.92100
C979        C  0.62178739  0.37780489  0.74984854     0.84200
C980        C  0.54154661  0.45817284  0.74982808     0.90500
C981        C  0.70615902  0.35567124  0.74984421     0.79900
N982        N  0.68544272  0.37601584  0.74984907    -0.78400
C983        C  0.64413585  0.35545175  0.74984740     0.82400
N984        N  0.62357096  0.31415853  0.74983960    -0.78300
C985        C  0.64393848  0.29346182  0.74983412     0.82400
N986        N  0.68520436  0.31442207  0.74983676    -0.80100
O987        O  0.58274676  0.22889582  0.74982030    -0.73300
O988        O  0.52217657  0.10625538  0.74981161    -0.74200
O989        O  0.55228323  0.16737981  0.78390323    -0.62900
O990        O  0.55230748  0.16738895  0.71572714    -0.71300
O991        O  0.61071967  0.16805467  0.71571038    -0.70800
O992        O  0.61069769  0.16805000  0.78393151    -0.62100
O993        O  0.58054855  0.10694324  0.74981855    -0.74600
O994        O  0.64109423  0.22955667  0.74982505    -0.73400
Cu995      Cu  0.55037303  0.16749927  0.74981501     1.04600
Cu996      Cu  0.61283339  0.16824794  0.74982144     1.04300
C997        C  0.62153182  0.24856531  0.74982572     0.92900
C998        C  0.54177722  0.08728918  0.74981483     0.92100
C999        C  0.58130111  0.16736703  0.79464515     0.84200
C1000       C  0.58132897  0.16737392  0.70499087     0.90500
O1001       O  0.89276488  0.41918830  0.74982983    -0.73300
O1002       O  0.77011159  0.35856383  0.74984356    -0.74200
O1003       O  0.83162560  0.38897553  0.71572582    -0.62900
O1004       O  0.83165588  0.38901242  0.78394816    -0.71300
O1005       O  0.83227408  0.44737824  0.78391972    -0.70800
O1006       O  0.83223884  0.44733893  0.71574359    -0.62100
O1007       O  0.77072085  0.41686328  0.74983979    -0.74600
O1008       O  0.89340639  0.47751500  0.74982304    -0.73400
Cu1009     Cu  0.83144428  0.38686821  0.74983720     1.04600
Cu1010     Cu  0.83213697  0.44927689  0.74983132     1.04300
C1011       C  0.91240205  0.45794431  0.74982432     0.92900
C1012       C  0.75107061  0.37809298  0.74984301     0.92100
C1013       C  0.83228079  0.41834225  0.70500681     0.84200
C1014       C  0.83232508  0.41839174  0.79466179     0.90500
N1015       N  0.84224623  0.35826920  0.58169973    -0.27600
N1016       N  0.86174346  0.38522403  0.56556425    -0.35500
C1017       C  0.85283065  0.36651224  0.54534361     0.00700
C1018       C  0.82692818  0.32567024  0.54879218     0.06800
C1019       C  0.82046692  0.32146826  0.57204707    -0.06300
H1020       H  0.86088844  0.38209429  0.52915612     0.07400
H1021       H  0.79863055  0.29442782  0.58099442     0.08600
Cu1022     Cu  0.88751195  0.44664219  0.56971480     0.44200
Cu1023     Cu  0.83966483  0.37481226  0.61495661     0.42000
Cu1024     Cu  0.83913531  0.46938133  0.61498566     0.43900
N1025       N  0.86162569  0.48192046  0.56563974    -0.35000
N1026       N  0.84185030  0.48882014  0.58176369    -0.29200
C1027       C  0.82001934  0.50355267  0.57211075    -0.05300
C1028       C  0.82677010  0.50624877  0.54887513     0.06900
C1029       C  0.85287997  0.49183434  0.54543337     0.00700
H1030       H  0.79795812  0.00825917  0.58103276     0.08300
H1031       H  0.86117490  0.48466382  0.52923913     0.07400
N1032       N  0.83658957  0.43792625  0.64428676    -0.36400
N1033       N  0.83675984  0.40341252  0.64426924    -0.28600
C1034       C  0.83493159  0.39099072  0.66584311    -0.03900
C1035       C  0.83353312  0.41901206  0.68007469     0.04700
C1036       C  0.83467444  0.44837375  0.66587793     0.02800
H1037       H  0.83480313  0.36367322  0.67077932     0.07900
H1038       H  0.83427885  0.47540943  0.67085055     0.06800
N1039       N  0.51092629  0.35717640  0.58170462    -0.27600
N1040       N  0.51821208  0.38405985  0.56560267    -0.35500
C1041       C  0.50822662  0.36536701  0.54537572     0.00700
C1042       C  0.49336216  0.32459999  0.54877483     0.06800
C1043       C  0.49585976  0.32044584  0.57201595    -0.06300
H1044       H  0.51568286  0.38097936  0.52919953     0.07400
H1045       H  0.99082763  0.29352866  0.58091677     0.08600
Cu1046     Cu  0.55410111  0.44553889  0.56974209     0.44200
Cu1047     Cu  0.53038834  0.37386086  0.61494460     0.42000
Cu1048     Cu  0.62580087  0.46920696  0.61494268     0.43900
N1049       N  0.61560550  0.48140458  0.56560383    -0.35000
N1050       N  0.64249781  0.48868056  0.58170657    -0.29200
C1051       C  0.67924615  0.50375808  0.57202092    -0.05300
C1052       C  0.67509285  0.50627042  0.54878096     0.06900
C1053       C  0.63430929  0.49140400  0.54537873     0.00700
H1054       H  0.70615755  0.00880936  0.58092023     0.08300
H1055       H  0.61869503  0.48396812  0.52920060     0.07400
N1056       N  0.59679396  0.43763832  0.64426176    -0.36400
N1057       N  0.56198216  0.40285199  0.64426258    -0.27800
C1058       C  0.55132273  0.39047017  0.66585043    -0.03900
C1059       C  0.58084457  0.41879601  0.68006840     0.04700
C1060       C  0.60918864  0.44829362  0.66584909     0.02800
H1061       H  0.52402978  0.36296925  0.67080535     0.07900
H1062       H  0.63671065  0.47556811  0.67080278     0.06800
N1063       N  0.51088983  0.35723107  0.91796699    -0.27600
N1064       N  0.51817306  0.38409809  0.93407964    -0.35500
C1065       C  0.50819638  0.36538588  0.95430031     0.00700
C1066       C  0.49334170  0.32462393  0.95088525     0.06800
C1067       C  0.49583496  0.32049256  0.92764189    -0.06300
H1068       H  0.51565173  0.38098235  0.97048205     0.07400
H1069       H  0.99080775  0.29358621  0.91872937     0.08600
Cu1070     Cu  0.55404844  0.44558278  0.92995891     0.44200
Cu1071     Cu  0.53034086  0.37394321  0.88472997     0.42000
Cu1072     Cu  0.62572681  0.46930368  0.88473467     0.43900
N1073       N  0.61555563  0.48145914  0.93408434    -0.35000
N1074       N  0.64243763  0.48875467  0.91797267    -0.29200
C1075       C  0.67919402  0.50382959  0.92764856    -0.05300
C1076       C  0.67505722  0.50631985  0.95089162     0.06900
C1077       C  0.63427511  0.49144411  0.95430566     0.00700
H1078       H  0.70612310  0.00887059  0.91873595     0.08300
H1079       H  0.61867315  0.48399039  0.97048738     0.07400
N1080       N  0.59673954  0.43772068  0.85541497    -0.36400
N1081       N  0.56193529  0.40292731  0.85541362    -0.28600
C1082       C  0.55128988  0.39052835  0.83382654    -0.03900
C1083       C  0.58081377  0.41884996  0.81960950     0.04700
C1084       C  0.60914410  0.44836380  0.83382855     0.02800
H1085       H  0.52400685  0.36301624  0.82887159     0.07900
H1086       H  0.63666463  0.47563862  0.82887544     0.06800
N1087       N  0.84230109  0.35833698  0.91796625    -0.27600
N1088       N  0.86178512  0.38527709  0.93411155    -0.35500
C1089       C  0.85285516  0.36654611  0.95432592     0.00700
C1090       C  0.82695399  0.32570713  0.95086268     0.06800
C1091       C  0.82051238  0.32152725  0.92760582    -0.06300
H1092       H  0.86089816  0.38211297  0.97051862     0.07400
H1093       H  0.79868235  0.29449596  0.91864796     0.08600
Cu1094     Cu  0.88755331  0.44669925  0.92997907     0.44200
Cu1095     Cu  0.83974556  0.37490761  0.88471342     0.42000
Cu1096     Cu  0.83923946  0.46948221  0.88468269     0.43900
N1097       N  0.86165910  0.48197375  0.93404194    -0.35000
N1098       N  0.84190834  0.48888853  0.91790936    -0.29200
C1099       C  0.82006182  0.50361139  0.92755386    -0.05300
C1100       C  0.82677718  0.50628601  0.95079276     0.06900
C1101       C  0.85288241  0.49186923  0.95424512     0.00700
H1102       H  0.79805531  0.00834890  0.91862746     0.08300
H1103       H  0.86115361  0.48468505  0.97044260     0.07400
N1104       N  0.83668445  0.43802240  0.85538002    -0.36400
N1105       N  0.83684520  0.40350397  0.85539995    -0.28600
C1106       C  0.83500202  0.39106879  0.83382759    -0.03900
C1107       C  0.83360308  0.41908559  0.81959367     0.04700
C1108       C  0.83476048  0.44845977  0.83378788     0.02800
H1109       H  0.83485932  0.36374252  0.82889405     0.07900
H1110       H  0.83436505  0.47549434  0.82881291     0.06800
N1111       N  0.64149319  0.15756353  0.58167781    -0.27600
N1112       N  0.61453715  0.13807890  0.56553607    -0.35500
C1113       C  0.63326390  0.14701751  0.54531796     0.00700
C1114       C  0.67411728  0.17292245  0.54877505     0.06800
C1115       C  0.67831027  0.17935932  0.57203202    -0.06300
H1116       H  0.61768229  0.13896744  0.52912762     0.07400
H1117       H  0.70535411  0.20118494  0.58098669     0.08600
Cu1118     Cu  0.55308863  0.11227322  0.56968135     0.44200
Cu1119     Cu  0.62492585  0.16009660  0.61493711     0.42000
Cu1120     Cu  0.53028781  0.16055878  0.61496978     0.43900
N1121       N  0.51778122  0.13813397  0.56561583    -0.35000
N1122       N  0.51086621  0.15788245  0.58174609    -0.29200
C1123       C  0.49613853  0.17971883  0.57209943    -0.05300
C1124       C  0.49345849  0.17299775  0.54886120     0.06900
C1125       C  0.50787849  0.14689966  0.54541182     0.00700
H1126       H  0.99141114  0.20172759  0.58102667     0.08300
H1127       H  0.51506924  0.13863145  0.52921555     0.07400
N1128       N  0.56175063  0.16309251  0.64427026    -0.36400
N1129       N  0.59629081  0.16294837  0.64425218    -0.28600
C1130       C  0.60871351  0.16476631  0.66582672    -0.03900
C1131       C  0.58066319  0.16612953  0.68005870     0.04700
C1132       C  0.55128512  0.16497948  0.66586192     0.02800
H1133       H  0.63604996  0.16491418  0.67076250     0.07900
H1134       H  0.52422961  0.16535356  0.67083431     0.06800
N1135       N  0.64148849  0.15758842  0.91795221    -0.27600
N1136       N  0.61453903  0.13809262  0.93409390    -0.35500
C1137       C  0.63327317  0.14702314  0.95431025     0.00700
C1138       C  0.67412448  0.17293616  0.95085182     0.06800
C1139       C  0.67830800  0.17938498  0.92759603    -0.06300
H1140       H  0.61769690  0.13896573  0.97050169     0.07400
H1141       H  0.70534645  0.20121964  0.91864185     0.08600
Cu1142     Cu  0.55308929  0.11229027  0.92995373     0.44200
Cu1143     Cu  0.62490728  0.16013224  0.88469865     0.42000
Cu1144     Cu  0.53024766  0.16055130  0.88466580     0.43900
N1145       N  0.51777367  0.13814239  0.93402271    -0.35000
N1146       N  0.51084157  0.15787885  0.91789314    -0.29200
C1147       C  0.49610838  0.17970946  0.92754179    -0.05300
C1148       C  0.49344302  0.17299783  0.95078052     0.06900
C1149       C  0.50787736  0.14691114  0.95422802     0.00700
H1150       H  0.99136731  0.20170898  0.91861500     0.08300
H1151       H  0.51508020  0.13865228  0.97042330     0.07400
N1152       N  0.56171204  0.16309153  0.85536447    -0.36400
N1153       N  0.59626033  0.16296343  0.85538471    -0.28600
C1154       C  0.60868496  0.16477989  0.83381140    -0.03900
C1155       C  0.58062820  0.16612557  0.81957712     0.04700
C1156       C  0.55124330  0.16496709  0.83377151     0.02800
H1157       H  0.63602795  0.16493895  0.82887801     0.07900
H1158       H  0.52418193  0.16532770  0.82879672     0.06800
O1159       O  0.72956674  0.19601846  0.97627504    -0.73300
O1160       O  0.80117649  0.27321643  0.02444504    -0.74200
O1161       O  0.72662619  0.19869564  0.02444381    -0.62900
O1162       O  0.80385273  0.27027460  0.97627669    -0.71300
O1163       O  0.77049663  0.30389842  0.97503690    -0.70800
O1164       O  0.69327366  0.23232303  0.02319844    -0.62100
O1165       O  0.76753454  0.30655460  0.02320080    -0.74600
O1166       O  0.69593482  0.22936638  0.97503229    -0.73400
Cu1167     Cu  0.76648708  0.23336943  0.00048273     1.04600
Cu1168     Cu  0.73062881  0.26921559  0.99899077     1.04300
C1169       C  0.70140215  0.20082329  0.96808905     0.92900
C1170       C  0.79568688  0.30174149  0.03139655     0.92100
C1171       C  0.69809126  0.20418429  0.03139542     0.84200
C1172       C  0.79905044  0.29843284  0.96809417     0.90500
O1173       O  0.53522694  0.30676739  0.02303654    -0.73300
O1174       O  0.52872577  0.22962844  0.97482301    -0.74200
O1175       O  0.52864798  0.30364837  0.97489450    -0.62900
O1176       O  0.03530780  0.23298276  0.02298172    -0.71300
O1177       O  0.96797287  0.19878928  0.02465554    -0.70800
O1178       O  0.96131334  0.26946664  0.97656516    -0.62100
O1179       O  0.96139185  0.19566013  0.97650994    -0.74600
O1180       O  0.96789333  0.27280164  0.02472992    -0.73400
Cu1181     Cu  0.53434886  0.26945672  0.99879570     1.04600
Cu1182     Cu  0.96226829  0.23297745  0.00075031     1.04300
C1183       C  0.00223431  0.30160804  0.03148291     0.92900
C1184       C  0.49438882  0.20080989  0.96807498     0.92100
C1185       C  0.49429621  0.29773678  0.96815716     0.84200
C1186       C  0.00233036  0.20472483  0.03140009     0.90500
O1187       O  0.80385206  0.27025140  0.52336804    -0.73300
O1188       O  0.72665068  0.19867217  0.47518867    -0.74200
O1189       O  0.80119894  0.27318752  0.47519589    -0.62900
O1190       O  0.72956730  0.19599923  0.52335959    -0.71300
O1191       O  0.69593443  0.22934682  0.52459029    -0.70800
O1192       O  0.76755837  0.30652768  0.47642861    -0.62100
O1193       O  0.69329968  0.23230188  0.47642254    -0.74600
O1194       O  0.77049737  0.30387724  0.52459651    -0.73400
Cu1195     Cu  0.76649915  0.23334615  0.49915608     1.04600
Cu1196     Cu  0.73064188  0.26919399  0.50063563     1.04300
C1197       C  0.79904381  0.29840763  0.53154875     0.92900
C1198       C  0.69812267  0.20416443  0.46822813     0.92100
C1199       C  0.79570842  0.30170731  0.46823644     0.84200
C1200       C  0.70139928  0.20080527  0.53153873     0.90500
O1201       O  0.03531922  0.23297565  0.47666026    -0.73300
O1202       O  0.52866342  0.30364291  0.52474890    -0.74200
O1203       O  0.52874071  0.22962554  0.52481909    -0.62900
O1204       O  0.53523395  0.30675522  0.47660329    -0.71300
O1205       O  0.96790024  0.27278825  0.47491130    -0.70800
O1206       O  0.96140654  0.19565531  0.52313073    -0.62100
O1207       O  0.96132852  0.26945988  0.52308009    -0.74600
O1208       O  0.96798409  0.19878124  0.47498537    -0.73400
Cu1209     Cu  0.53436108  0.26945058  0.50084615     1.04600
Cu1210     Cu  0.96228026  0.23296982  0.49889177     1.04300
C1211       C  0.00234167  0.20471821  0.46824054     0.92900
C1212       C  0.49431276  0.29772694  0.53149064     0.92100
C1213       C  0.49440415  0.20080734  0.53156653     0.84200
C1214       C  0.00223980  0.30158918  0.46815437     0.90500
O1215       O  0.76684592  0.96457058  0.02301974    -0.73300
O1216       O  0.69608190  0.47109293  0.97492615    -0.74200
O1217       O  0.77014951  0.47104728  0.97485457    -0.62900
O1218       O  0.69301970  0.46461921  0.02307259    -0.71300
O1219       O  0.72697092  0.03193005  0.02471899    -0.70800
O1220       O  0.80411431  0.03836219  0.97650396    -0.62100
O1221       O  0.73026355  0.03840635  0.97655164    -0.74600
O1222       O  0.80102906  0.03188275  0.02465396    -0.73400
Cu1223     Cu  0.73032463  0.46546055  0.99883066     1.04600
Cu1224     Cu  0.76679616  0.03751905  0.00074095     1.04300
C1225       C  0.79511290  0.99755765  0.03141957     0.92900
C1226       C  0.70197721  0.50541243  0.96816588     0.92100
C1227       C  0.79896450  0.50536211  0.96808637     0.84200
C1228       C  0.69817045  0.99761201  0.03149418     0.90500
O1229       O  0.69305969  0.46462681  0.47656772    -0.73300
O1230       O  0.77017142  0.47102430  0.52479018    -0.74200
O1231       O  0.69610493  0.47106370  0.52471995    -0.62900
O1232       O  0.76688637  0.46458094  0.47662451    -0.71300
O1233       O  0.80104452  0.03189342  0.47500940    -0.70800
O1234       O  0.73025600  0.03837917  0.52311156    -0.62100
O1235       O  0.80410343  0.03833572  0.52316322    -0.74600
O1236       O  0.72698729  0.03193971  0.47493829    -0.73400
Cu1237     Cu  0.73035543  0.46545277  0.50081168     1.04600
Cu1238     Cu  0.76679930  0.03751096  0.49892236     1.04300
C1239       C  0.69819550  0.99762602  0.46814960     0.92900
C1240       C  0.79897828  0.50533518  0.53157063     0.92100
C1241       C  0.70200029  0.50537732  0.53149308     0.84200
C1242       C  0.79512893  0.99757302  0.46823355     0.90500
O1243       O  0.88610871  0.05551640  0.21571600    -0.73300
O1244       O  0.88608981  0.05551891  0.28391781    -0.74200
O1245       O  0.85554675  0.08619499  0.24981033    -0.62900
O1246       O  0.91654682  0.02507743  0.24982208    -0.71300
O1247       O  0.97489946  0.08338266  0.24982523    -0.70800
O1248       O  0.91389045  0.14449114  0.24981384    -0.62100
O1249       O  0.94450287  0.11388144  0.28392217    -0.74600
O1250       O  0.94452134  0.11387951  0.21571815    -0.73400
Cu1251     Cu  0.88401877  0.05357910  0.24981653     1.04600
Cu1252     Cu  0.94645436  0.11596086  0.24982018     1.04300
C1253       C  0.91547635  0.08453679  0.20498796     0.92900
C1254       C  0.91545315  0.08454018  0.29464927     0.92100
C1255       C  0.87509496  0.12497627  0.24980932     0.84200
C1256       C  0.95533565  0.04460825  0.24982451     0.90500
C1257       C  0.79072725  0.14711334  0.24979657     0.79900
N1258       N  0.81144212  0.12676770  0.24980094    -0.78400
C1259       C  0.85274856  0.14733044  0.24980284     0.82400
N1260       N  0.87331504  0.18862339  0.24979992    -0.78300
C1261       C  0.85294934  0.20932156  0.24979528     0.82400
N1262       N  0.81168315  0.18836278  0.24979417    -0.80100
O1263       O  0.72677488  0.14421982  0.24980332    -0.73300
O1264       O  0.60412257  0.08359551  0.24981757    -0.74200
O1265       O  0.66526811  0.11378054  0.28392819    -0.62900
O1266       O  0.66523853  0.11379323  0.21569217    -0.71300
O1267       O  0.66462276  0.05542939  0.21571305    -0.70800
O1268       O  0.66465059  0.05541582  0.28389003    -0.62100
O1269       O  0.60347997  0.02526850  0.24980852    -0.74600
O1270       O  0.72616641  0.08592077  0.24979520    -0.73400
Cu1271     Cu  0.66544359  0.11591358  0.24981066     1.04600
Cu1272     Cu  0.66475049  0.05350552  0.24980116     1.04300
C1273       C  0.74581608  0.12469124  0.24979800     0.92900
C1274       C  0.58448459  0.04483970  0.24981528     0.92100
C1275       C  0.66462511  0.08441033  0.29463842     0.84200
C1276       C  0.66458654  0.08442536  0.20497335     0.90500
O1277       O  0.91414423  0.27388555  0.24979576    -0.73300
O1278       O  0.97471713  0.39652856  0.24981301    -0.74200
O1279       O  0.94460040  0.33537706  0.28389361    -0.62900
O1280       O  0.94460021  0.33540599  0.21571482    -0.71300
O1281       O  0.88618913  0.33474060  0.21568986    -0.70800
O1282       O  0.88618886  0.33471068  0.28392643    -0.62100
O1283       O  0.91634442  0.39583878  0.24981712    -0.74600
O1284       O  0.85579854  0.27322814  0.24979929    -0.73400
Cu1285     Cu  0.94652117  0.33528255  0.24980402     1.04600
Cu1286     Cu  0.88406253  0.33453529  0.24980828     1.04300
C1287       C  0.87535890  0.25421786  0.24979615     0.92900
C1288       C  0.95511530  0.41549395  0.24981725     0.92100
C1289       C  0.91557698  0.33537094  0.29463965     0.84200
C1290       C  0.91557909  0.33541243  0.20497287     0.90500
N1291       N  0.98587626  0.14545275  0.08167333    -0.27600
N1292       N  0.97862615  0.11853060  0.06559973    -0.35500
C1293       C  0.98852996  0.13715191  0.04535220     0.00700
C1294       C  0.00331026  0.17791266  0.04871119     0.06800
C1295       C  0.00084462  0.18213895  0.07194689    -0.06300
H1296       H  0.98108321  0.12148593  0.02919214     0.07400
H1297       H  0.50583337  0.20906610  0.08081976     0.08600
Cu1298     Cu  0.94287848  0.05705695  0.06980506     0.44200
Cu1299     Cu  0.96648918  0.12885966  0.11492780     0.42000
Cu1300     Cu  0.87108738  0.03353058  0.11493332     0.43900
N1301       N  0.88137702  0.02132746  0.06561043    -0.35000
N1302       N  0.85445753  0.01410524  0.08168696    -0.29200
C1303       C  0.81774852  0.99912573  0.07196725    -0.05300
C1304       C  0.82195799  0.99662472  0.04873284     0.06900
C1305       C  0.86273185  0.01139554  0.04536720     0.00700
H1306       H  0.79082064  0.49413843  0.08083793     0.08300
H1307       H  0.87839025  0.01881009  0.02920341     0.07400
N1308       N  0.90009555  0.06510352  0.14424914    -0.36400
N1309       N  0.93490813  0.09988841  0.14424778    -0.28600
C1310       C  0.94557219  0.11227868  0.16583419    -0.03900
C1311       C  0.91605136  0.08395844  0.18005260     0.04700
C1312       C  0.88770364  0.05445617  0.16583621     0.02800
H1313       H  0.97286632  0.13978116  0.17078746     0.07900
H1314       H  0.86018115  0.02718504  0.17079142     0.06800
N1315       N  0.85542099  0.34493389  0.08160318    -0.27600
N1316       N  0.88241782  0.36447427  0.06548928    -0.35500
C1317       C  0.86375941  0.35554409  0.04525069     0.00700
C1318       C  0.82290657  0.32958879  0.04866497     0.06800
C1319       C  0.81864131  0.32310970  0.07191748    -0.06300
H1320       H  0.87939361  0.36364397  0.02907713     0.07400
H1321       H  0.79157868  0.30124762  0.08084292     0.08600
Cu1322     Cu  0.94385571  0.39035326  0.06969453     0.44200
Cu1323     Cu  0.87191459  0.34240553  0.11488296     0.42000
Cu1324     Cu  0.96653981  0.34192816  0.11494781     0.43900
N1325       N  0.97902657  0.36435581  0.06559326    -0.35000
N1326       N  0.98589481  0.34454903  0.08170833    -0.29200
C1327       C  0.00053172  0.32264987  0.07203764    -0.05300
C1328       C  0.00319914  0.32939372  0.04880116     0.06900
C1329       C  0.98886467  0.35556606  0.04537663     0.00700
H1330       H  0.50521561  0.30059906  0.08094830     0.08300
H1331       H  0.98169546  0.36388538  0.02919009     0.07400
N1332       N  0.93511435  0.33951416  0.14424817    -0.36400
N1333       N  0.90057533  0.33966143  0.14421776    -0.28600
C1334       C  0.88817558  0.33792553  0.16579108    -0.03900
C1335       C  0.91623919  0.33661367  0.18003686     0.04700
C1336       C  0.94560087  0.33770734  0.16584726     0.02800
H1337       H  0.86084192  0.33779164  0.17071656     0.07900
H1338       H  0.97265602  0.33734130  0.17082991     0.06800
N1339       N  0.65492442  0.14449164  0.08160825    -0.27600
N1340       N  0.63536614  0.11749874  0.06549775    -0.35500
C1341       C  0.64427863  0.13614323  0.04525809     0.00700
C1342       C  0.67024170  0.17698263  0.04866787     0.06800
C1343       C  0.67674341  0.18125430  0.07191908    -0.06300
H1344       H  0.63616522  0.12050932  0.02908572     0.07400
H1345       H  0.69861971  0.20831053  0.08084040     0.08600
Cu1346     Cu  0.60949396  0.05608726  0.06970566     0.44200
Cu1347     Cu  0.65748712  0.12801800  0.11488636     0.42000
Cu1348     Cu  0.65795614  0.03342173  0.11495296     0.43900
N1349       N  0.63546602  0.02089674  0.06560560    -0.35000
N1350       N  0.65528109  0.01402797  0.08171914    -0.29200
C1351       C  0.67715635  0.99935980  0.07204884    -0.05300
C1352       C  0.67039057  0.99667511  0.04881381     0.06900
C1353       C  0.64422922  0.01103034  0.04538991     0.00700
H1354       H  0.69922792  0.49467887  0.08095935     0.08300
H1355       H  0.63590173  0.01819064  0.02920283     0.07400
N1356       N  0.66041776  0.06486326  0.14425049    -0.36400
N1357       N  0.66027024  0.09938897  0.14422011    -0.28600
C1358       C  0.66203415  0.11179845  0.16579280    -0.03900
C1359       C  0.66336666  0.08375690  0.18003788     0.04700
C1360       C  0.66225450  0.05439722  0.16584862     0.02800
H1361       H  0.66217193  0.13912531  0.17071883     0.07900
H1362       H  0.66262429  0.02735302  0.17083141     0.06800
N1363       N  0.85540421  0.34483348  0.41801224    -0.27600
N1364       N  0.88241263  0.36439935  0.43411789    -0.35500
C1365       C  0.86377090  0.35549565  0.45436062     0.00700
C1366       C  0.82291595  0.32953218  0.45095748     0.06800
C1367       C  0.81863272  0.32301962  0.42770731    -0.06300
H1368       H  0.87941836  0.36362103  0.47053062     0.07400
H1369       H  0.79156382  0.30114358  0.41879097     0.08600
Cu1370     Cu  0.94384673  0.39028310  0.42989669     0.44200
Cu1371     Cu  0.87188241  0.34227157  0.38473344     0.42000
Cu1372     Cu  0.96652335  0.34181178  0.38466457     0.43900
N1373       N  0.97902038  0.36429290  0.43401291    -0.35000
N1374       N  0.98588594  0.34446781  0.41790721    -0.29200
C1375       C  0.00052773  0.32258270  0.42759022    -0.05300
C1376       C  0.00320077  0.32935504  0.45082468     0.06900
C1377       C  0.98886400  0.35552880  0.45423510     0.00700
H1378       H  0.50521191  0.30052231  0.41868985     0.08300
H1379       H  0.98169736  0.36386702  0.47041668     0.07400
N1380       N  0.93509659  0.33940854  0.35536488    -0.36400
N1381       N  0.90055438  0.33955000  0.35539789    -0.28600
C1382       C  0.88816033  0.33783447  0.33382495    -0.03900
C1383       C  0.91623025  0.33654225  0.31957623     0.04700
C1384       C  0.94559013  0.33762543  0.33376388     0.02800
H1385       H  0.86082729  0.33770422  0.32890166     0.07900
H1386       H  0.97265046  0.33727205  0.32877857     0.06800
N1387       N  0.98587446  0.14545404  0.41796191    -0.27600
N1388       N  0.97863292  0.11853082  0.43403227    -0.35500
C1389       C  0.98854546  0.13715022  0.45428100     0.00700
C1390       C  0.00332208  0.17791075  0.45092599     0.06800
C1391       C  0.00084587  0.18213902  0.42769156    -0.06300
H1392       H  0.98110462  0.12148259  0.47043984     0.07400
H1393       H  0.50582767  0.20906603  0.41882245     0.08600
Cu1394     Cu  0.94287943  0.05705871  0.42982413     0.44200
Cu1395     Cu  0.96646901  0.12886370  0.38470945     0.42000
Cu1396     Cu  0.87106258  0.03354252  0.38470611     0.43900
N1397       N  0.88137901  0.02134528  0.43402751    -0.35000
N1398       N  0.85445132  0.01412430  0.41795537    -0.29200
C1399       C  0.81774816  0.99914893  0.42768099    -0.05300
C1400       C  0.82197070  0.99665067  0.45091441     0.06900
C1401       C  0.86274566  0.01141877  0.45427367     0.00700
H1402       H  0.79083127  0.49415792  0.41881127     0.08300
H1403       H  0.87841287  0.01883087  0.47043509     0.07400
N1404       N  0.90006414  0.06511199  0.35538840    -0.36400
N1405       N  0.93487889  0.09989474  0.35539038    -0.28600
C1406       C  0.94554287  0.11228336  0.33380453    -0.03900
C1407       C  0.91602047  0.08396472  0.31958502     0.04700
C1408       C  0.88767088  0.05446440  0.33380065     0.02800
H1409       H  0.97284025  0.13978268  0.32885220     0.07900
H1410       H  0.86014809  0.02719349  0.32884437     0.06800
N1411       N  0.65501015  0.14449401  0.41800088    -0.27600
N1412       N  0.63542462  0.11749732  0.43410384    -0.35500
C1413       C  0.64431456  0.13613388  0.45434636     0.00700
C1414       C  0.67029095  0.17697277  0.45094548     0.06800
C1415       C  0.67682459  0.18125187  0.42769723    -0.06300
H1416       H  0.63617626  0.12049397  0.47051598     0.07400
H1417       H  0.69871801  0.20830893  0.41878423     0.08600
Cu1418     Cu  0.60954470  0.05608828  0.42988358     0.44200
Cu1419     Cu  0.65760258  0.12802113  0.38472748     0.42000
Cu1420     Cu  0.65804079  0.03340478  0.38465756     0.43900
N1421       N  0.63552397  0.02090914  0.43400246    -0.35000
N1422       N  0.65534964  0.01403200  0.41789891    -0.29200
C1423       C  0.67721854  0.99936906  0.42758370    -0.05300
C1424       C  0.67043783  0.99669849  0.45081721     0.06900
C1425       C  0.64427508  0.01105586  0.45422535     0.00700
H1426       H  0.69930821  0.49468152  0.41868537     0.08300
H1427       H  0.63593403  0.01822217  0.47040642     0.07400
N1428       N  0.66050004  0.06484715  0.35535993    -0.36400
N1429       N  0.66036392  0.09937881  0.35539454    -0.28600
C1430       C  0.66211553  0.11178732  0.33382368    -0.03900
C1431       C  0.66342826  0.08374028  0.31957411     0.04700
C1432       C  0.66231742  0.05437679  0.33375925     0.02800
H1433       H  0.66225592  0.13911692  0.32890191     0.07900
H1434       H  0.66267229  0.02732642  0.32877189     0.06800
C1435       C  0.97765678  0.02227891  0.24982478     0.79900
N1436       N  0.51895033  0.04284329  0.24982282    -0.78400
C1437       C  0.53963929  0.02248373  0.24981976     0.82400
N1438       N  0.51870213  0.48125972  0.24981997    -0.78300
C1439       C  0.97746071  0.46032430  0.24982096     0.82400
N1440       N  0.95708296  0.48099814  0.24982232    -0.80100
C1441       C  0.51923214  0.98050326  0.74982296     0.79900
N1442       N  0.53979922  0.52178274  0.74981943    -0.78400
C1443       C  0.51942403  0.54245873  0.74981617     0.82400
N1444       N  0.97818224  0.52152544  0.74981690    -0.78300
C1445       C  0.95725167  0.98030112  0.74982073     0.82400
N1446       N  0.97793904  0.95994037  0.74982387    -0.80100
O1447       O  0.55236395  0.88890964  0.78394217    -0.73300
O1448       O  0.55237642  0.88888883  0.71573619    -0.74200
O1449       O  0.58299600  0.85828915  0.74984704    -0.62900
O1450       O  0.52198609  0.91939814  0.74983087    -0.71300
O1451       O  0.58033942  0.97770289  0.74983037    -0.70800
O1452       O  0.64133861  0.91658601  0.74984804    -0.62100
O1453       O  0.61078866  0.94725146  0.71573576    -0.74600
O1454       O  0.61077525  0.94727328  0.78394307    -0.73400
Cu1455     Cu  0.55043030  0.88681918  0.74983924     1.04600
Cu1456     Cu  0.61286519  0.94920095  0.74983946     1.04300
C1457       C  0.58140451  0.91825705  0.79467233     0.92900
C1458       C  0.58142314  0.91822782  0.70500607     0.92100
C1459       C  0.62179176  0.87780478  0.74984842     0.84200
C1460       C  0.54155096  0.95817262  0.74982812     0.90500
C1461       C  0.70616362  0.85567140  0.74984469     0.79900
N1462       N  0.68544732  0.87601603  0.74984924    -0.78400
C1463       C  0.64414045  0.85545195  0.74984756     0.82400
N1464       N  0.62357556  0.81415888  0.74984007    -0.78300
C1465       C  0.64394279  0.79346196  0.74983490     0.82400
N1466       N  0.68520882  0.81442208  0.74983756    -0.80100
O1467       O  0.58274987  0.72889710  0.74982160    -0.73300
O1468       O  0.52217360  0.60625625  0.74981215    -0.74200
O1469       O  0.55228274  0.66738027  0.78390413    -0.62900
O1470       O  0.55230736  0.66739079  0.71572814    -0.71300
O1471       O  0.61071804  0.66805345  0.71571121    -0.70800
O1472       O  0.61069619  0.66804841  0.78393248    -0.62100
O1473       O  0.58054451  0.60694192  0.74981935    -0.74600
O1474       O  0.64109610  0.72955544  0.74982601    -0.73400
Cu1475     Cu  0.55037298  0.66750053  0.74981598     1.04600
Cu1476     Cu  0.61283205  0.66824645  0.74982234     1.04300
C1477       C  0.62153501  0.74856538  0.74982678     0.92900
C1478       C  0.54177316  0.58728894  0.74981539     0.92100
C1479       C  0.58129993  0.66736620  0.79464608     0.84200
C1480       C  0.58132805  0.66737442  0.70499178     0.90500
O1481       O  0.89276963  0.91918931  0.74983095    -0.73300
O1482       O  0.77011666  0.85856479  0.74984407    -0.74200
O1483       O  0.83163126  0.88897581  0.71572625    -0.62900
O1484       O  0.83166015  0.88901585  0.78394939    -0.71300
O1485       O  0.83227935  0.94738211  0.78391968    -0.70800
O1486       O  0.83224275  0.94733827  0.71574338    -0.62100
O1487       O  0.77072539  0.91686394  0.74983996    -0.74600
O1488       O  0.89341140  0.97751612  0.74982263    -0.73400
Cu1489     Cu  0.83144929  0.88686969  0.74983809     1.04600
Cu1490     Cu  0.83214174  0.94927812  0.74983115     1.04300
C1491       C  0.91240693  0.95794524  0.74982461     0.92900
C1492       C  0.75107536  0.87809359  0.74984339     0.92100
C1493       C  0.83228508  0.91834159  0.70500682     0.84200
C1494       C  0.83232946  0.91839585  0.79466248     0.90500
N1495       N  0.84224696  0.85827316  0.58169724    -0.27600
N1496       N  0.86173506  0.88522920  0.56556089    -0.35500
C1497       C  0.85282059  0.86651704  0.54534036     0.00700
C1498       C  0.82692681  0.82567365  0.54878975     0.06800
C1499       C  0.82047223  0.82147098  0.57204520    -0.06300
H1500       H  0.86087085  0.88209877  0.52915270     0.07400
H1501       H  0.79864273  0.79442869  0.58099358     0.08600
Cu1502     Cu  0.88749217  0.94664633  0.56971109     0.44200
Cu1503     Cu  0.83966901  0.87481434  0.61495513     0.42000
Cu1504     Cu  0.83910776  0.96936712  0.61498479     0.43900
N1505       N  0.86159941  0.98191926  0.56563903    -0.35000
N1506       N  0.84181948  0.98881081  0.58176379    -0.29200
C1507       C  0.81998585  0.00354169  0.57211222    -0.05300
C1508       C  0.82674026  0.00624583  0.54887675     0.06900
C1509       C  0.85285471  0.99183732  0.54543360     0.00700
H1510       H  0.79799445  0.50827541  0.58103067     0.08300
H1511       H  0.86115380  0.98467361  0.52923877     0.07400
N1512       N  0.83657852  0.93791904  0.64428622    -0.36400
N1513       N  0.83676014  0.90341105  0.64426854    -0.28600
C1514       C  0.83493983  0.89099255  0.66584256    -0.03900
C1515       C  0.83353509  0.91901025  0.68007447     0.04700
C1516       C  0.83466434  0.94836619  0.66587763     0.02800
H1517       H  0.83482083  0.86367984  0.67077861     0.07900
H1518       H  0.83426050  0.97539768  0.67085040     0.06800
N1519       N  0.51092420  0.85717273  0.58170718    -0.27600
N1520       N  0.51820026  0.88405513  0.56560621    -0.35500
C1521       C  0.50821354  0.86536284  0.54537911     0.00700
C1522       C  0.49335839  0.82459719  0.54877722     0.06800
C1523       C  0.49586304  0.82044353  0.57201777    -0.06300
H1524       H  0.51566294  0.88097563  0.52920304     0.07400
H1525       H  0.99083914  0.79352813  0.58091746     0.08600
Cu1526     Cu  0.55407930  0.94553497  0.56974647     0.44200
Cu1527     Cu  0.53039146  0.87385873  0.61494613     0.42000
Cu1528     Cu  0.62578971  0.96921843  0.61494374     0.43900
N1529       N  0.61558243  0.98140638  0.56560535    -0.35000
N1530       N  0.64247829  0.98868897  0.58170700    -0.29200
C1531       C  0.67922558  0.00376857  0.57201984    -0.05300
C1532       C  0.67506782  0.00627485  0.54877988     0.06900
C1533       C  0.63428296  0.99140316  0.54537930     0.00700
H1534       H  0.70617604  0.50879467  0.58092226     0.08300
H1535       H  0.61866608  0.98396174  0.52920193     0.07400
N1536       N  0.59679171  0.93764388  0.64426256    -0.36400
N1537       N  0.56198489  0.90285263  0.64426348    -0.27800
C1538       C  0.55132930  0.89046813  0.66585122    -0.03900
C1539       C  0.58084863  0.91879725  0.68006892     0.04700
C1540       C  0.60918728  0.94829965  0.66584969     0.02800
H1541       H  0.52404045  0.86296332  0.67080623     0.07900
H1542       H  0.63670550  0.97557788  0.67080328     0.06800
N1543       N  0.51088918  0.85722873  0.91796555    -0.27600
N1544       N  0.51817546  0.88409711  0.93407787    -0.35500
C1545       C  0.50819872  0.86538590  0.95429882     0.00700
C1546       C  0.49334076  0.82462323  0.95088426     0.06800
C1547       C  0.49583212  0.82049037  0.92764090    -0.06300
H1548       H  0.51565611  0.88098308  0.97048031     0.07400
H1549       H  0.99080247  0.79358281  0.91872859     0.08600
Cu1550     Cu  0.55405397  0.94558125  0.92995590     0.44200
Cu1551     Cu  0.53033986  0.87393865  0.88472845     0.42000
Cu1552     Cu  0.62573223  0.96929430  0.88473362     0.43900
N1553       N  0.61556106  0.98145776  0.93408157    -0.35000
N1554       N  0.64244315  0.98874994  0.91797056    -0.29200
C1555       C  0.67919929  0.00382563  0.92764677    -0.05300
C1556       C  0.67506224  0.00632007  0.95088941     0.06900
C1557       C  0.63428026  0.99144593  0.95430292     0.00700
H1558       H  0.70611807  0.50887683  0.91873700     0.08300
H1559       H  0.61867819  0.98399510  0.97048448     0.07400
N1560       N  0.59674249  0.93771331  0.85541430    -0.36400
N1561       N  0.56193610  0.90292210  0.85541259    -0.28600
C1562       C  0.55128994  0.89052476  0.83382537    -0.03900
C1563       C  0.58081572  0.91884537  0.81960880     0.04700
C1564       C  0.60914779  0.94835672  0.83382808     0.02800
H1565       H  0.52400537  0.86301471  0.82887007     0.07900
H1566       H  0.63667000  0.97563001  0.82887531     0.06800
N1567       N  0.84230220  0.85834179  0.91796731    -0.27600
N1568       N  0.86178707  0.88528130  0.93411275    -0.35500
C1569       C  0.85285701  0.86654976  0.95432693     0.00700
C1570       C  0.82695480  0.82571109  0.95086342     0.06800
C1571       C  0.82051278  0.82153198  0.92760660    -0.06300
H1572       H  0.86090071  0.88211623  0.97051984     0.07400
H1573       H  0.79868199  0.79450110  0.91864858     0.08600
Cu1574     Cu  0.88755652  0.94670357  0.92998076     0.44200
Cu1575     Cu  0.83974666  0.87491333  0.88471478     0.42000
Cu1576     Cu  0.83924251  0.96948820  0.88468435     0.43900
N1577       N  0.86166307  0.98197876  0.93404402    -0.35000
N1578       N  0.84191220  0.98889403  0.91791170    -0.29200
C1579       C  0.82006621  0.00361712  0.92755674    -0.05300
C1580       C  0.82678198  0.00629138  0.95079568     0.06900
C1581       C  0.85288694  0.99187407  0.95424746     0.00700
H1582       H  0.79805095  0.50834279  0.91862422     0.08300
H1583       H  0.86115819  0.98468930  0.97044470     0.07400
N1584       N  0.83668694  0.93802826  0.85538098    -0.36400
N1585       N  0.83684701  0.90350948  0.85540117    -0.28600
C1586       C  0.83500427  0.89107391  0.83382894    -0.03900
C1587       C  0.83360636  0.91909060  0.81959455     0.04700
C1588       C  0.83476387  0.94846544  0.83378855     0.02800
H1589       H  0.83486147  0.86374730  0.82889575     0.07900
H1590       H  0.83436940  0.97550018  0.82881326     0.06800
N1591       N  0.64148970  0.65756003  0.58167958    -0.27600
N1592       N  0.61453354  0.63807710  0.56553762    -0.35500
C1593       C  0.63326059  0.64701599  0.54531966     0.00700
C1594       C  0.67411414  0.67291931  0.54877709     0.06800
C1595       C  0.67830709  0.67935489  0.57203410    -0.06300
H1596       H  0.61767918  0.63896745  0.52912916     0.07400
H1597       H  0.70535127  0.70117931  0.58098909     0.08600
Cu1598     Cu  0.55308531  0.61227442  0.56968239     0.44200
Cu1599     Cu  0.62492272  0.66009298  0.61493865     0.42000
Cu1600     Cu  0.53029050  0.66056662  0.61496993     0.43900
N1601       N  0.51778068  0.63813813  0.56561620    -0.35000
N1602       N  0.51086803  0.65788920  0.58174597    -0.29200
C1603       C  0.49614119  0.67972582  0.57209863    -0.05300
C1604       C  0.49345921  0.67300229  0.54886057     0.06900
C1605       C  0.50787739  0.64690250  0.54541197     0.00700
H1606       H  0.99141543  0.70173642  0.58102532     0.08300
H1607       H  0.51506639  0.63863187  0.52921589     0.07400
N1608       N  0.56175105  0.66309642  0.64427101    -0.36400
N1609       N  0.59628907  0.66294803  0.64425318    -0.28600
C1610       C  0.60871088  0.66476414  0.66582772    -0.03900
C1611       C  0.58066226  0.66613052  0.68005960     0.04700
C1612       C  0.55128602  0.66498427  0.66586270     0.02800
H1613       H  0.63604560  0.66490855  0.67076357     0.07900
H1614       H  0.52423218  0.66536151  0.67083502     0.06800
N1615       N  0.64148871  0.65759022  0.91795343    -0.27600
N1616       N  0.61453996  0.63809404  0.93409535    -0.35500
C1617       C  0.63327469  0.64702521  0.95431156     0.00700
C1618       C  0.67412577  0.67293914  0.95085277     0.06800
C1619       C  0.67830843  0.67938779  0.92759692    -0.06300
H1620       H  0.61769900  0.63896754  0.97050304     0.07400
H1621       H  0.70534637  0.70122279  0.91864249     0.08600
Cu1622     Cu  0.55308996  0.61228993  0.92995542     0.44200
Cu1623     Cu  0.62490550  0.66013224  0.88469998     0.42000
Cu1624     Cu  0.53024327  0.66054611  0.88466630     0.43900
N1625       N  0.51777237  0.63814005  0.93402365    -0.35000
N1626       N  0.51083828  0.65787443  0.91789369    -0.29200
C1627       C  0.49610456  0.67970489  0.92754195    -0.05300
C1628       C  0.49344107  0.67299542  0.95078087     0.06900
C1629       C  0.50787689  0.64691011  0.95422878     0.00700
H1630       H  0.99136241  0.70170346  0.91861473     0.08300
H1631       H  0.51508157  0.63865322  0.97042438     0.07400
N1632       N  0.56170893  0.66308815  0.85536524    -0.36400
N1633       N  0.59625807  0.66296172  0.85538572    -0.28600
C1634       C  0.60868349  0.66477922  0.83381248    -0.03900
C1635       C  0.58062640  0.66612398  0.81957804     0.04700
C1636       C  0.55124048  0.66496376  0.83377223     0.02800
H1637       H  0.63602730  0.66493993  0.82887927     0.07900
H1638       H  0.52417856  0.66532327  0.82879730     0.06800
O1639       O  0.72956853  0.69602228  0.97627582    -0.73300
O1640       O  0.80117810  0.77322105  0.02444557    -0.74200
O1641       O  0.72662861  0.69869958  0.02444464    -0.62900
O1642       O  0.80385410  0.77027880  0.97627739    -0.71300
O1643       O  0.77049711  0.80390173  0.97503754    -0.70800
O1644       O  0.69327519  0.73232610  0.02319961    -0.62100
O1645       O  0.76753519  0.80655826  0.02320137    -0.74600
O1646       O  0.69593572  0.72936930  0.97503328    -0.73400
Cu1647     Cu  0.76648890  0.73337359  0.00048344     1.04600
Cu1648     Cu  0.73062965  0.76921874  0.99899162     1.04300
C1649       C  0.70140354  0.70082659  0.96808992     0.92900
C1650       C  0.79568799  0.80174584  0.03139701     0.92100
C1651       C  0.69809357  0.70418781  0.03139654     0.84200
C1652       C  0.79905131  0.79843668  0.96809485     0.90500
O1653       O  0.53522688  0.80676790  0.02303529    -0.73300
O1654       O  0.52872467  0.72962773  0.97482212    -0.74200
O1655       O  0.52864701  0.80364781  0.97489342    -0.62900
O1656       O  0.03530830  0.73298338  0.02298047    -0.71300
O1657       O  0.96797342  0.69879010  0.02465508    -0.70800
O1658       O  0.96131236  0.76946612  0.97656437    -0.62100
O1659       O  0.96139079  0.69565944  0.97650974    -0.74600
O1660       O  0.96789336  0.77280209  0.02472910    -0.73400
Cu1661     Cu  0.53434852  0.76945674  0.99879456     1.04600
Cu1662     Cu  0.96226797  0.73297750  0.00074975     1.04300
C1663       C  0.00223441  0.80160868  0.03148183     0.92900
C1664       C  0.49438748  0.70080876  0.96807465     0.92100
C1665       C  0.49429518  0.79773620  0.96815621     0.84200
C1666       C  0.00233115  0.70472562  0.03139916     0.90500
O1667       O  0.80384971  0.77024995  0.52336885    -0.73300
O1668       O  0.72664585  0.69866308  0.47519230    -0.74200
O1669       O  0.80119365  0.77317965  0.47519636    -0.62900
O1670       O  0.72956574  0.69599660  0.52336296    -0.71300
O1671       O  0.69593115  0.72934261  0.52459164    -0.70800
O1672       O  0.76755183  0.80651865  0.47642745    -0.62100
O1673       O  0.69329409  0.73229218  0.47642410    -0.74600
O1674       O  0.77049366  0.80387454  0.52459528    -0.73400
Cu1675     Cu  0.76649576  0.73334096  0.49915822     1.04600
Cu1676     Cu  0.73063709  0.76918758  0.50063576     1.04300
C1677       C  0.79904126  0.79840711  0.53154794     0.92900
C1678       C  0.69811686  0.70415353  0.46823138     0.92100
C1679       C  0.79570206  0.80169816  0.46823573     0.84200
C1680       C  0.70139684  0.70080214  0.53154113     0.90500
O1681       O  0.03532113  0.73298303  0.47665885    -0.73300
O1682       O  0.52866222  0.80364559  0.52474956    -0.74200
O1683       O  0.52874143  0.72962962  0.52481802    -0.62900
O1684       O  0.53523431  0.80676168  0.47660363    -0.71300
O1685       O  0.96790055  0.77279398  0.47491111    -0.70800
O1686       O  0.96140733  0.69565794  0.52312855    -0.62100
O1687       O  0.96132742  0.76946131  0.52307978    -0.74600
O1688       O  0.96798614  0.69878820  0.47498263    -0.73400
Cu1689     Cu  0.53436146  0.76945570  0.50084577     1.04600
Cu1690     Cu  0.96228083  0.73297396  0.49889040     1.04300
C1691       C  0.00234428  0.70472672  0.46823780     0.92900
C1692       C  0.49431091  0.79772776  0.53149134     0.92100
C1693       C  0.49440490  0.70081084  0.53156504     0.84200
C1694       C  0.00224007  0.80159551  0.46815459     0.90500
O1695       O  0.76684764  0.46456810  0.02301692    -0.73300
O1696       O  0.69608574  0.97109405  0.97492521    -0.74200
O1697       O  0.77015413  0.97105098  0.97485725    -0.62900
O1698       O  0.69301659  0.96461877  0.02307143    -0.71300
O1699       O  0.72697706  0.53193052  0.02471971    -0.70800
O1700       O  0.80411159  0.53835857  0.97650070    -0.62100
O1701       O  0.73026200  0.53840522  0.97655198    -0.74600
O1702       O  0.80103339  0.53188032  0.02465029    -0.73400
Cu1703     Cu  0.73032572  0.96546233  0.99883154     1.04600
Cu1704     Cu  0.76679765  0.53751728  0.00073941     1.04300
C1705       C  0.79511683  0.49755497  0.03141569     0.92900
C1706       C  0.70198072  0.00541330  0.96816472     0.92100
C1707       C  0.79896881  0.00536635  0.96808951     0.84200
C1708       C  0.69817671  0.49761327  0.03149591     0.90500
O1709       O  0.69303430  0.96462734  0.47656704    -0.73300
O1710       O  0.77014162  0.97102327  0.52479157    -0.74200
O1711       O  0.69607681  0.97106576  0.52471877    -0.62900
O1712       O  0.76686033  0.96458014  0.47662542    -0.71300
O1713       O  0.80107122  0.53189432  0.47500988    -0.70800
O1714       O  0.73028021  0.53837699  0.52311196    -0.62100
O1715       O  0.80412935  0.53833686  0.52316324    -0.74600
O1716       O  0.72701312  0.53193905  0.47493825    -0.73400
Cu1717     Cu  0.73032808  0.96545288  0.50081180     1.04600
Cu1718     Cu  0.76682481  0.53751072  0.49892262     1.04300
C1719       C  0.69822117  0.49762535  0.46814978     0.92900
C1720       C  0.79894960  0.00533365  0.53157177     0.92100
C1721       C  0.70197414  0.00538008  0.53149200     0.84200
C1722       C  0.79515555  0.49757416  0.46823343     0.90500
O1723       O  0.88610238  0.55551360  0.21571313    -0.73300
O1724       O  0.88608619  0.55551776  0.28391511    -0.74200
O1725       O  0.85554157  0.58619347  0.24980797    -0.62900
O1726       O  0.91654188  0.52507571  0.24981930    -0.71300
O1727       O  0.97489426  0.58338119  0.24982186    -0.70800
O1728       O  0.91388535  0.64448951  0.24981063    -0.62100
O1729       O  0.94449870  0.61388084  0.28391864    -0.74600
O1730       O  0.94451495  0.61387671  0.21571472    -0.73400
Cu1731     Cu  0.88401365  0.55357728  0.24981383     1.04600
Cu1732     Cu  0.94644904  0.61595916  0.24981672     1.04300
C1733       C  0.91546986  0.58453361  0.20498478     0.92900
C1734       C  0.91544988  0.58453949  0.29464614     0.92100
C1735       C  0.87508990  0.62497480  0.24980686     0.84200
C1736       C  0.95533071  0.54460678  0.24982174     0.90500
C1737       C  0.79072329  0.64711362  0.24979755     0.79900
N1738       N  0.81143757  0.62676736  0.24980077    -0.78400
C1739       C  0.85274399  0.64732949  0.24980132     0.82400
N1740       N  0.87331101  0.68862245  0.24979826    -0.78300
C1741       C  0.85294591  0.70932124  0.24979473     0.82400
N1742       N  0.81167972  0.68836304  0.24979489    -0.80100
O1743       O  0.72677107  0.64422071  0.24980634    -0.73300
O1744       O  0.60411863  0.58359654  0.24982019    -0.74200
O1745       O  0.66526375  0.61378009  0.28393130    -0.62900
O1746       O  0.66523513  0.61379565  0.21569517    -0.71300
O1747       O  0.66461960  0.55543193  0.21571536    -0.70800
O1748       O  0.66464726  0.55541591  0.28389225    -0.62100
O1749       O  0.60347646  0.52526975  0.24981063    -0.74600
O1750       O  0.72616244  0.58592158  0.24979722    -0.73400
Cu1751     Cu  0.66543965  0.61591454  0.24981368     1.04600
Cu1752     Cu  0.66474688  0.55350667  0.24980336     1.04300
C1753       C  0.74581216  0.62469198  0.24980014     0.92900
C1754       C  0.58448089  0.54484071  0.24981737     0.92100
C1755       C  0.66462154  0.58440987  0.29464111     0.84200
C1756       C  0.66458403  0.58442855  0.20497600     0.90500
O1757       O  0.91414156  0.77388444  0.24979521    -0.73300
O1758       O  0.97471779  0.89652755  0.24981232    -0.74200
O1759       O  0.94459892  0.83537613  0.28389308    -0.62900
O1760       O  0.94459911  0.83540469  0.21571416    -0.71300
O1761       O  0.88618921  0.83474172  0.21568925    -0.70800
O1762       O  0.88618799  0.83471101  0.28392565    -0.62100
O1763       O  0.91634606  0.89583978  0.24981663    -0.74600
O1764       O  0.85579670  0.77322872  0.24979845    -0.73400
Cu1765     Cu  0.94652002  0.83528139  0.24980341     1.04600
Cu1766     Cu  0.88406230  0.83453615  0.24980758     1.04300
C1767       C  0.87535624  0.75421757  0.24979549     0.92900
C1768       C  0.95511703  0.91549399  0.24981672     0.92100
C1769       C  0.91557560  0.83537052  0.29463899     0.84200
C1770       C  0.91557852  0.83541224  0.20497225     0.90500
N1771       N  0.98587480  0.64545103  0.08167129    -0.27600
N1772       N  0.97862887  0.61853061  0.06559736    -0.35500
C1773       C  0.98853470  0.63715356  0.04535029     0.00700
C1774       C  0.00331170  0.67791358  0.04871005     0.06800
C1775       C  0.00084216  0.68213765  0.07194560    -0.06300
H1776       H  0.98109115  0.62148889  0.02918985     0.07400
H1777       H  0.50582737  0.70906337  0.08081874     0.08600
Cu1778     Cu  0.94288338  0.55705634  0.06980131     0.44200
Cu1779     Cu  0.96648359  0.62885516  0.11492487     0.42000
Cu1780     Cu  0.87108875  0.53352144  0.11492972     0.43900
N1781       N  0.88138207  0.52132515  0.06560595    -0.35000
N1782       N  0.85446167  0.51409902  0.08168259    -0.29200
C1783       C  0.81775265  0.49911867  0.07196275    -0.05300
C1784       C  0.82196300  0.49662147  0.04872812     0.06900
C1785       C  0.86273747  0.51139527  0.04536248     0.00700
H1786       H  0.79081720  0.99414812  0.08084227     0.08300
H1787       H  0.87839625  0.51881282  0.02919891     0.07400
N1788       N  0.90009212  0.56509676  0.14424596    -0.36400
N1789       N  0.93490255  0.59988369  0.14424462    -0.28600
C1790       C  0.94556487  0.61227562  0.16583093    -0.03900
C1791       C  0.91604504  0.58395437  0.18004938     0.04700
C1792       C  0.88769963  0.55444971  0.16583303     0.02800
H1793       H  0.97285725  0.63977974  0.17078409     0.07900
H1794       H  0.86017878  0.52717719  0.17078826     0.06800
N1795       N  0.85542157  0.84493853  0.08160352    -0.27600
N1796       N  0.88241885  0.86447781  0.06548965    -0.35500
C1797       C  0.86376066  0.85554767  0.04525103     0.00700
C1798       C  0.82290761  0.82959357  0.04866522     0.06800
C1799       C  0.81864183  0.82311514  0.07191777    -0.06300
H1800       H  0.87939513  0.86364650  0.02907750     0.07400
H1801       H  0.79157900  0.80125391  0.08084317     0.08600
Cu1802     Cu  0.94385660  0.89035446  0.06969451     0.44200
Cu1803     Cu  0.87191388  0.84240914  0.11488331     0.42000
Cu1804     Cu  0.96653574  0.84192512  0.11494662     0.43900
N1805       N  0.97902649  0.86435604  0.06559256    -0.35000
N1806       N  0.98589282  0.84454754  0.08170741    -0.29200
C1807       C  0.00052981  0.82264857  0.07203663    -0.05300
C1808       C  0.00319936  0.82939419  0.04880029     0.06900
C1809       C  0.98886596  0.85556754  0.04537595     0.00700
H1810       H  0.50521242  0.80059664  0.08094708     0.08300
H1811       H  0.98169826  0.86388844  0.02918930     0.07400
N1812       N  0.93511192  0.83951264  0.14424741    -0.36400
N1813       N  0.90057414  0.83966233  0.14421748    -0.28600
C1814       C  0.88817531  0.83792707  0.16579091    -0.03900
C1815       C  0.91623823  0.83661325  0.18003629     0.04700
C1816       C  0.94559859  0.83770494  0.16584636     0.02800
H1817       H  0.86084262  0.83779511  0.17071677     0.07900
H1818       H  0.97265292  0.83733708  0.17082867     0.06800
N1819       N  0.65492859  0.64449712  0.08161026    -0.27600
N1820       N  0.63537302  0.61750265  0.06550004    -0.35500
C1821       C  0.64428491  0.63614575  0.04525997     0.00700
C1822       C  0.67024473  0.67698595  0.04866917     0.06800
C1823       C  0.67674521  0.68125954  0.07192045    -0.06300
H1824       H  0.63617349  0.62051097  0.02908807     0.07400
H1825       H  0.69861948  0.70831736  0.08084154     0.08600
Cu1826     Cu  0.60950524  0.55609202  0.06970908     0.44200
Cu1827     Cu  0.65749091  0.62802583  0.11488905     0.42000
Cu1828     Cu  0.65797442  0.53343564  0.11495535     0.43900
N1829       N  0.63547755  0.52090185  0.06560928    -0.35000
N1830       N  0.65529650  0.51403726  0.08172229    -0.29200
C1831       C  0.67717087  0.49936836  0.07205165    -0.05300
C1832       C  0.67040006  0.49667846  0.04881700     0.06900
C1833       C  0.64423692  0.51103161  0.04539367     0.00700
H1834       H  0.69921120  0.99466795  0.08095725     0.08300
H1835       H  0.63590560  0.51818819  0.02920661     0.07400
N1836       N  0.66042716  0.56487333  0.14425285    -0.36400
N1837       N  0.66027437  0.59939641  0.14422268    -0.28600
C1838       C  0.66203283  0.61180295  0.16579558    -0.03900
C1839       C  0.66336697  0.58376206  0.18004051     0.04700
C1840       C  0.66226161  0.55440601  0.16585099     0.02800
H1841       H  0.66216568  0.63912712  0.17072180     0.07900
H1842       H  0.66263457  0.52736328  0.17083363     0.06800
N1843       N  0.85539733  0.84482550  0.41801116    -0.27600
N1844       N  0.88240525  0.86439304  0.43411679    -0.35500
C1845       C  0.86376352  0.85548813  0.45435949     0.00700
C1846       C  0.82290914  0.82952218  0.45095637     0.06800
C1847       C  0.81862617  0.82300926  0.42770624    -0.06300
H1848       H  0.87941108  0.86361514  0.47052963     0.07400
H1849       H  0.79155778  0.80113191  0.41878988     0.08600
Cu1850     Cu  0.94383987  0.89028190  0.42989582     0.44200
Cu1851     Cu  0.87187641  0.84226578  0.38473239     0.42000
Cu1852     Cu  0.96652101  0.84181330  0.38466439     0.43900
N1853       N  0.97901706  0.86429582  0.43401260    -0.35000
N1854       N  0.98588441  0.84447169  0.41790712    -0.29200
C1855       C  0.00052839  0.82258870  0.42759040    -0.05300
C1856       C  0.00320089  0.82936135  0.45082488     0.06900
C1857       C  0.98886161  0.85553313  0.45423490     0.00700
H1858       H  0.50521415  0.80052935  0.41869035     0.08300
H1859       H  0.98169366  0.86387067  0.47041652     0.07400
N1860       N  0.93509402  0.83940821  0.35536439    -0.36400
N1861       N  0.90055059  0.83954725  0.35539712    -0.28600
C1862       C  0.88815687  0.83783141  0.33382410    -0.03900
C1863       C  0.91622822  0.83654142  0.31957558     0.04700
C1864       C  0.94558861  0.83762627  0.33376347     0.02800
H1865       H  0.86082291  0.83769933  0.32890060     0.07900
H1866       H  0.97265015  0.83727494  0.32877832     0.06800
N1867       N  0.98587626  0.64546591  0.41795739    -0.27600
N1868       N  0.97864563  0.61854448  0.43402700    -0.35500
C1869       C  0.98855993  0.63716385  0.45427575     0.00700
C1870       C  0.00332633  0.67792275  0.45092147     0.06800
C1871       C  0.00084198  0.68214980  0.42768756    -0.06300
H1872       H  0.98112691  0.62149629  0.47043449     0.07400
H1873       H  0.50581511  0.70907461  0.41881949     0.08600
Cu1874     Cu  0.94290290  0.55707139  0.42981871     0.44200
Cu1875     Cu  0.96646552  0.62887217  0.38470574     0.42000
Cu1876     Cu  0.87107598  0.53353438  0.38470322     0.43900
N1877       N  0.88140399  0.52135067  0.43402492    -0.35000
N1878       N  0.85447254  0.51412116  0.41795364    -0.29200
C1879       C  0.81777023  0.49914278  0.42768075    -0.05300
C1880       C  0.82199743  0.49665219  0.45091429     0.06900
C1881       C  0.86277395  0.51142725  0.45427203     0.00700
H1882       H  0.79081207  0.99417052  0.41881081     0.08300
H1883       H  0.87844385  0.51884606  0.47043273     0.07400
N1884       N  0.90006906  0.56510885  0.35538532    -0.36400
N1885       N  0.93487781  0.59989758  0.35538695    -0.28600
C1886       C  0.94553793  0.61228792  0.33380099    -0.03900
C1887       C  0.91601896  0.58396433  0.31958186     0.04700
C1888       C  0.88767562  0.55445928  0.33379778     0.02800
H1889       H  0.97283020  0.63979181  0.32884835     0.07900
H1890       H  0.86015707  0.52718353  0.32884181     0.06800
N1891       N  0.65499986  0.64448013  0.41800564    -0.27600
N1892       N  0.63542306  0.61748181  0.43410924    -0.35500
C1893       C  0.64431524  0.63611812  0.45435187     0.00700
C1894       C  0.67028370  0.67695838  0.45095038     0.06800
C1895       C  0.67681041  0.68123882  0.42770164    -0.06300
H1896       H  0.63618439  0.62047826  0.47052137     0.07400
H1897       H  0.69869755  0.70829782  0.41878776     0.08600
Cu1898     Cu  0.60955333  0.55607380  0.42988885     0.44200
Cu1899     Cu  0.65759023  0.62801111  0.38473120     0.42000
Cu1900     Cu  0.65805906  0.53341081  0.38466026     0.43900
N1901       N  0.63554247  0.52090314  0.43400517    -0.35000
N1902       N  0.65537270  0.51403448  0.41790067    -0.29200
C1903       C  0.67724622  0.49937537  0.42758394    -0.05300
C1904       C  0.67046322  0.49669777  0.45081740     0.06900
C1905       C  0.64429464  0.51104764  0.45422711     0.00700
H1906       H  0.69927709  0.99466886  0.41868598     0.08300
H1907       H  0.63594960  0.51820732  0.47040897     0.07400
N1908       N  0.66050587  0.56484845  0.35536262    -0.36400
N1909       N  0.66035884  0.59937455  0.35539765    -0.28600
C1910       C  0.66210535  0.61178165  0.33382689    -0.03900
C1911       C  0.66342578  0.58373929  0.31957687     0.04700
C1912       C  0.66232499  0.55438013  0.33376169     0.02800
H1913       H  0.66223696  0.63910698  0.32890551     0.07900
H1914       H  0.66268832  0.52733436  0.32877395     0.06800
C1915       C  0.97765239  0.52227803  0.24982320     0.79900
N1916       N  0.51894597  0.54284312  0.24982249    -0.78400
C1917       C  0.53963565  0.52248432  0.24982094     0.82400
N1918       N  0.51870506  0.98125912  0.24981858    -0.78300
C1919       C  0.97746359  0.96032442  0.24982067     0.82400
N1920       N  0.95708669  0.98099908  0.24982349    -0.80100
loop_ 
_geom_bond_atom_site_label_1 
_geom_bond_atom_site_label_2 
_geom_bond_distance 
_geom_bond_site_symmetry_2 
_ccdc_geom_bond_type 
C1           C20   1.481       .  S
C1          N482   1.362       .  A
C1          N966   1.362   1_455  A
N2            C3   1.362       .  A
N2          C481   1.362   1_545  A
C3           C38   1.480       .  S
C3          N964   1.361   1_455  A
N4          C963   1.361       .  A
N4          C485   1.361   1_545  A
C5           C51   1.480       .  S
C5            N6   1.362       .  A
C5          N484   1.361       .  A
N6          C961   1.362       .  A
O7          Cu15   2.008       .  S
O7           C17   1.277       .  A
O8          Cu15   2.008       .  S
O8           C18   1.277       .  A
O9          Cu15   2.029       .  S
O9           C19   1.280       .  A
O10         Cu15   2.026       .  S
O10          C20   1.280       .  A
O11         Cu16   2.026       .  S
O11          C20   1.280       .  A
O12         Cu16   2.029       .  S
O12          C19   1.280       .  A
O13         Cu16   2.008       .  S
O13          C18   1.277       .  A
O14         Cu16   2.008       .  S
O14          C17   1.277       .  A
Cu15        Cu16   2.374       .  S
C17         C123   1.468       .  S
C18          C99   1.468       .  S
C19          C23   1.483       .  S
C21          C52   1.482       .  S
C21          N22   1.362       .  A
C21          N26   1.361       .  A
N22          C23   1.363       .  A
C23          N24   1.363       .  A
N24          C25   1.363       .  A
C25          C37   1.482       .  S
C25          N26   1.361       .  A
O27         Cu35   2.027       .  S
O27          C37   1.280       .  A
O28         Cu35   2.024       .  S
O28          C38   1.280       .  A
O29         Cu35   2.007       .  S
O29          C39   1.277       .  A
O30         Cu35   2.007       .  S
O30          C40   1.277       .  A
O31         Cu36   2.008       .  S
O31          C40   1.277       .  A
O32         Cu36   2.008       .  S
O32          C39   1.277       .  A
O33         Cu36   2.024       .  S
O33          C38   1.279       .  A
O34         Cu36   2.026       .  S
O34          C37   1.280       .  A
Cu35        Cu36   2.374       .  S
C39         C195   1.467       .  S
C40         C171   1.468       .  S
O41         Cu49   2.024       .  S
O41          C51   1.279       .  A
O42         Cu49   2.026       .  S
O42          C52   1.280       .  A
O43         Cu49   2.008       .  S
O43          C53   1.277       .  A
O44         Cu49   2.009       .  S
O44          C54   1.277       .  A
O45         Cu50   2.007       .  S
O45          C54   1.277       .  A
O46         Cu50   2.007       .  S
O46          C53   1.277       .  A
O47         Cu50   2.027       .  S
O47          C52   1.280       .  A
O48         Cu50   2.024       .  S
O48          C51   1.280       .  A
Cu49        Cu50   2.374       .  S
C53          C75   1.468       .  S
C54         C147   1.468       .  S
N55          C59   1.346       .  A
N55          N56   1.320       .  A
N55         Cu63   2.074       .  S
N56          C57   1.341       .  A
N56         Cu62   2.052       .  S
C57          C58   1.378       .  A
C57          H60   1.082       .  S
C58         C237   1.459       .  S
C58          C59   1.385       .  A
C59          H61   1.082       .  S
Cu62         N65   2.051       .  S
Cu63         N73   2.075       .  S
Cu64         N66   2.075       .  S
Cu64         N72   2.076       .  S
N65          C69   1.341       .  A
N65          N66   1.320       .  A
N66          C67   1.346       .  A
C67          C68   1.385       .  A
C67         H550   1.082       .  S
C68         C280   1.459       .  S
C68          C69   1.378       .  A
C69          H71   1.082       .  S
H70         C547   1.082       .  S
N72          C76   1.345       .  A
N72          N73   1.323       .  A
N73          C74   1.345       .  A
C74          C75   1.382       .  A
C74          H77   1.082       .  S
C75          C76   1.383       .  A
C76          H78   1.082       .  S
N79          C83   1.346   1_455  A
N79          N80   1.320       .  A
N79         Cu87   2.075       .  S
N80          C81   1.341       .  A
N80         Cu86   2.052       .  S
C81          C82   1.378   1_455  A
C81          H84   1.082       .  S
C82         C252   1.459       .  S
C82          C83   1.385       .  A
C83        H1045   1.082       .  S
H85        C1043   1.082       .  S
Cu86         N89   2.052       .  S
Cu87         N97   2.076       .  S
Cu88         N90   2.075       .  S
Cu88         N96   2.076       .  S
N89          C93   1.341       .  A
N89          N90   1.320       .  A
N90          C91   1.346       .  A
C91          C92   1.385       .  A
C91         H574   1.082       .  S
C92         C281   1.459       .  S
C92          C93   1.378       .  A
C93          H95   1.082       .  S
H94         C571   1.082       .  S
N96         C100   1.345       .  A
N96          N97   1.323       .  A
N97          C98   1.345       .  A
C98          C99   1.383       .  A
C98         H101   1.082       .  S
C99         C100   1.383       .  A
C100        H102   1.082       .  S
N103        C107   1.346   1_455  A
N103        N104   1.320       .  A
N103       Cu111   2.075       .  S
N104        C105   1.341       .  A
N104       Cu110   2.052       .  S
C105        C106   1.378   1_455  A
C105        H108   1.082       .  S
C106        C225   1.459       .  S
C106        C107   1.385       .  A
C107       H1069   1.082       .  S
H109       C1067   1.082       .  S
Cu110       N113   2.052       .  S
Cu111       N121   2.076       .  S
Cu112       N114   2.075       .  S
Cu112       N120   2.076       .  S
N113        C117   1.341       .  A
N113        N114   1.320       .  A
N114        C115   1.346       .  A
C115        C116   1.385       .  A
C115        H598   1.082       .  S
C116        C266   1.459       .  S
C116        C117   1.378       .  A
C117        H119   1.082       .  S
H118        C595   1.082       .  S
N120        C124   1.345       .  A
N120        N121   1.323       .  A
N121        C122   1.345       .  A
C122        C123   1.383       .  A
C122        H125   1.082       .  S
C123        C124   1.383       .  A
C124        H126   1.082       .  S
N127        C131   1.346       .  A
N127        N128   1.320       .  A
N127       Cu135   2.074       .  S
N128        C129   1.341       .  A
N128       Cu134   2.052       .  S
C129        C130   1.378       .  A
C129        H132   1.082       .  S
C130        C212   1.459       .  S
C130        C131   1.385       .  A
C131        H133   1.082       .  S
Cu134       N137   2.051       .  S
Cu135       N145   2.075       .  S
Cu136       N138   2.075       .  S
Cu136       N144   2.076       .  S
N137        C141   1.341       .  A
N137        N138   1.320       .  A
N138        C139   1.346       .  A
C139        C140   1.385       .  A
C139        H622   1.082       .  S
C140        C267   1.459       .  S
C140        C141   1.378       .  A
C141        H143   1.082       .  S
H142        C619   1.082       .  S
N144        C148   1.345       .  A
N144        N145   1.323       .  A
N145        C146   1.345       .  A
C146        C147   1.382       .  A
C146        H149   1.082       .  S
C147        C148   1.383       .  A
C148        H150   1.082       .  S
N151        C155   1.346       .  A
N151        N152   1.320       .  A
N151       Cu159   2.074       .  S
N152        C153   1.341       .  A
N152       Cu158   2.052       .  S
C153        C154   1.378       .  A
C153        H156   1.082       .  S
C154        C240   1.459       .  S
C154        C155   1.385       .  A
C155        H157   1.082       .  S
Cu158       N161   2.051       .  S
Cu159       N169   2.075       .  S
Cu160       N162   2.075       .  S
Cu160       N168   2.076       .  S
N161        C165   1.341       .  A
N161        N162   1.320       .  A
N162        C163   1.346   1_455  A
C163        C164   1.385       .  A
C163       H1126   1.082       .  S
C164        C253   1.459       .  S
C164        C165   1.378   1_655  A
C165        H167   1.082       .  S
H166       C1123   1.082       .  S
N168        C172   1.345       .  A
N168        N169   1.323       .  A
N169        C170   1.345       .  A
C170        C171   1.382       .  A
C170        H173   1.082       .  S
C171        C172   1.383       .  A
C172        H174   1.082       .  S
N175        C179   1.346       .  A
N175        N176   1.320       .  A
N175       Cu183   2.074       .  S
N176        C177   1.341       .  A
N176       Cu182   2.052       .  S
C177        C178   1.378       .  A
C177        H180   1.082       .  S
C178        C209   1.459       .  S
C178        C179   1.385       .  A
C179        H181   1.082       .  S
Cu182       N185   2.051       .  S
Cu183       N193   2.075       .  S
Cu184       N186   2.075       .  S
Cu184       N192   2.076       .  S
N185        C189   1.341       .  A
N185        N186   1.320       .  A
N186        C187   1.346   1_455  A
C187        C188   1.385       .  A
C187       H1150   1.082       .  S
C188        C224   1.459       .  S
C188        C189   1.378   1_655  A
C189        H191   1.082       .  S
H190       C1147   1.082       .  S
N192        C196   1.345       .  A
N192        N193   1.323       .  A
N193        C194   1.345       .  A
C194        C195   1.382       .  A
C194        H197   1.082       .  S
C195        C196   1.383       .  A
C196        H198   1.082       .  S
O199       Cu207   2.006   1_556  S
O199        C209   1.275       .  A
O200       Cu207   2.007       .  S
O200        C210   1.278       .  A
O201       Cu207   2.006       .  S
O201        C211   1.278       .  A
O202       Cu207   2.006   1_556  S
O202        C212   1.275       .  A
O203       Cu208   2.006       .  S
O203        C212   1.278       .  A
O204       Cu208   2.006   1_554  S
O204        C211   1.275       .  A
O205       Cu208   2.006   1_554  S
O205        C210   1.275       .  A
O206       Cu208   2.006       .  S
O206        C209   1.278       .  A
Cu207      Cu208   2.381   1_554  S
C210        C358   1.459       .  S
C211        C382   1.459       .  S
O213       Cu221   2.006   1_554  S
O213       C1183   1.275       .  A
O214       Cu221   2.006       .  S
O214        C224   1.278   1_455  A
O215       Cu221   2.006       .  S
O215        C225   1.278   1_455  A
O216      Cu1181   2.006   1_554  S
O216        C226   1.275       .  A
O217       Cu222   2.006       .  S
O217        C226   1.278       .  A
O218       Cu222   2.006   1_556  S
O218       C1185   1.275       .  A
O219       Cu222   2.006   1_556  S
O219       C1184   1.275       .  A
O220       Cu222   2.006       .  S
O220        C223   1.278       .  A
Cu221      O1176   2.006   1_556  S
Cu221     Cu1182   2.381   1_456  S
Cu222     Cu1181   2.381   1_554  S
C223        C368   1.459       .  S
C223       O1173   1.275       .  A
C224       O1179   1.275       .  A
C225       O1178   1.275       .  A
C226        C334   1.459       .  S
O227       Cu235   2.006       .  S
O227        C237   1.275       .  A
O228       Cu235   2.006       .  S
O228        C238   1.278       .  A
O229       Cu235   2.007       .  S
O229        C239   1.278       .  A
O230       Cu235   2.006       .  S
O230        C240   1.275       .  A
O231       Cu236   2.006       .  S
O231        C240   1.278       .  A
O232       Cu236   2.006       .  S
O232        C239   1.275       .  A
O233       Cu236   2.006       .  S
O233        C238   1.275       .  A
O234       Cu236   2.006       .  S
O234        C237   1.278       .  A
Cu235      Cu236   2.381       .  S
C238        C454   1.459       .  S
C239        C406   1.459       .  S
O241      Cu1209   2.006       .  S
O241        C251   1.275       .  A
O242       Cu249   2.006       .  S
O242        C252   1.278   1_455  A
O243       Cu249   2.006       .  S
O243        C253   1.278   1_455  A
O244       Cu249   2.006       .  S
O244       C1214   1.275       .  A
O245       Cu250   2.006       .  S
O245        C254   1.278       .  A
O246       Cu250   2.006       .  S
O246       C1213   1.275       .  A
O247       Cu250   2.007       .  S
O247       C1212   1.275       .  A
O248       Cu250   2.006       .  S
O248        C251   1.278       .  A
Cu249      O1201   2.006       .  S
Cu249     Cu1210   2.381   1_455  S
Cu250     Cu1209   2.381       .  S
C251        C430   1.459       .  S
C252       O1207   1.275       .  A
C253       O1206   1.275       .  A
C254        C416   1.459       .  S
C254       O1204   1.275       .  A
O255       Cu743   2.006   1_554  S
O255        C265   1.275       .  A
O256       Cu263   2.006       .  S
O256        C266   1.278       .  A
O257       Cu263   2.006       .  S
O257        C267   1.278       .  A
O258       Cu263   2.006   1_554  S
O258        C748   1.275       .  A
O259       Cu264   2.006       .  S
O259        C268   1.278   1_545  A
O260       Cu264   2.006   1_556  S
O260        C747   1.275       .  A
O261       Cu264   2.006   1_556  S
O261        C746   1.275       .  A
O262       Cu264   2.006       .  S
O262        C265   1.278   1_545  A
Cu263       O735   2.006   1_556  S
Cu263      Cu744   2.381   1_556  S
Cu264      Cu743   2.381   1_544  S
C265        C344   1.459       .  S
C266        O741   1.275       .  A
C267        O740   1.275       .  A
C268        C392   1.459       .  S
C268        O738   1.275       .  A
O269       Cu277   2.006       .  S
O269        C759   1.275       .  A
O270       Cu277   2.006       .  S
O270        C280   1.278       .  A
O271       Cu277   2.006       .  S
O271        C281   1.278       .  A
O272       Cu277   2.006       .  S
O272        C762   1.275       .  A
O273       Cu278   2.006       .  S
O273        C282   1.278   1_545  A
O274       Cu278   2.006       .  S
O274        C761   1.275       .  A
O275       Cu278   2.006       .  S
O275        C760   1.275       .  A
O276       Cu278   2.006       .  S
O276        C279   1.278   1_545  A
Cu277      Cu758   2.381       .  S
Cu278      Cu757   2.381   1_545  S
C279        C464   1.459       .  S
C279        O749   1.275       .  A
C280        O755   1.275       .  A
C281        O754   1.275       .  A
C282        C440   1.459       .  S
C282        O752   1.275       .  A
O283       Cu291   2.008       .  S
O283        C293   1.277       .  A
O284       Cu291   2.008       .  S
O284        C294   1.277       .  A
O285       Cu291   2.028       .  S
O285        C295   1.280       .  A
O286       Cu291   2.026       .  S
O286        C296   1.280       .  A
O287       Cu292   2.026       .  S
O287        C296   1.280       .  A
O288       Cu292   2.029       .  S
O288        C295   1.280       .  A
O289       Cu292   2.008       .  S
O289        C294   1.277       .  A
O290       Cu292   2.008       .  S
O290        C293   1.277       .  A
Cu291      Cu292   2.374       .  S
C293        C351   1.468       .  S
C294        C447   1.468       .  S
C295        C299   1.483       .  S
C296        C475   1.482       .  S
C297        C313   1.482       .  S
C297        N298   1.362       .  A
C297        N302   1.361       .  A
N298        C299   1.363       .  A
C299        N300   1.363       .  A
N300        C301   1.363       .  A
C301        C327   1.482       .  S
C301        N302   1.361       .  A
O303       Cu311   2.026       .  S
O303        C313   1.280       .  A
O304       Cu311   2.024       .  S
O304        C314   1.279       .  A
O305       Cu311   2.009       .  S
O305        C315   1.277       .  A
O306       Cu311   2.009       .  S
O306        C316   1.277       .  A
O307       Cu312   2.007       .  S
O307        C316   1.277       .  A
O308       Cu312   2.007       .  S
O308        C315   1.277       .  A
O309       Cu312   2.024       .  S
O309        C314   1.280       .  A
O310       Cu312   2.027       .  S
O310        C313   1.280       .  A
Cu311      Cu312   2.374       .  S
C314        C477   1.480       .  S
C315        C471   1.468       .  S
C316        C399   1.468       .  S
O317       Cu325   2.027       .  S
O317        C327   1.280       .  A
O318       Cu325   2.024       .  S
O318        C328   1.280       .  A
O319       Cu325   2.007       .  S
O319        C329   1.277       .  A
O320       Cu325   2.007       .  S
O320        C330   1.277       .  A
O321       Cu326   2.009       .  S
O321        C330   1.277       .  A
O322       Cu326   2.009       .  S
O322        C329   1.277       .  A
O323       Cu326   2.024       .  S
O323        C328   1.279       .  A
O324       Cu326   2.026       .  S
O324        C327   1.280       .  A
Cu325      Cu326   2.374       .  S
C328        C479   1.480       .  S
C329        C423   1.468       .  S
C330        C375   1.468       .  S
N331        C335   1.346       .  A
N331        N332   1.320       .  A
N331       Cu339   2.075       .  S
N332        C333   1.341       .  A
N332       Cu338   2.052       .  S
C333        C334   1.378       .  A
C333        H336   1.082       .  S
C334        C335   1.385       .  A
C335       H1297   1.082       .  S
H337       C1295   1.082       .  S
Cu338       N341   2.052       .  S
Cu339       N349   2.076       .  S
Cu340       N342   2.075       .  S
Cu340       N348   2.076       .  S
N341        C345   1.341       .  A
N341        N342   1.320       .  A
N342        C343   1.346   1_545  A
C343        C344   1.385       .  A
C343        H826   1.082       .  S
C344        C345   1.378   1_565  A
C345        H347   1.082       .  S
H346        C823   1.082       .  S
N348        C352   1.345       .  A
N348        N349   1.323       .  A
N349        C350   1.345       .  A
C350        C351   1.382       .  A
C350        H353   1.082       .  S
C351        C352   1.382       .  A
C352        H354   1.082       .  S
N355        C359   1.346       .  A
N355        N356   1.320       .  A
N355       Cu363   2.074       .  S
N356        C357   1.341       .  A
N356       Cu362   2.051       .  S
C357        C358   1.378       .  A
C357        H360   1.082       .  S
C358        C359   1.385       .  A
C359        H361   1.082       .  S
Cu362       N365   2.051       .  S
Cu363       N373   2.075       .  S
Cu364       N366   2.075       .  S
Cu364       N372   2.077       .  S
N365        C369   1.341       .  A
N365        N366   1.320       .  A
N366        C367   1.346       .  A
C367        C368   1.385       .  A
C367       H1330   1.082       .  S
C368        C369   1.378       .  A
C369        H371   1.082       .  S
H370       C1327   1.082       .  S
N372        C376   1.345       .  A
N372        N373   1.323       .  A
N373        C374   1.345       .  A
C374        C375   1.382       .  A
C374        H377   1.082       .  S
C375        C376   1.383       .  A
C376        H378   1.082       .  S
N379        C383   1.346       .  A
N379        N380   1.320       .  A
N379       Cu387   2.074       .  S
N380        C381   1.341       .  A
N380       Cu386   2.051       .  S
C381        C382   1.378       .  A
C381        H384   1.082       .  S
C382        C383   1.385       .  A
C383        H385   1.082       .  S
Cu386       N389   2.051       .  S
Cu387       N397   2.075       .  S
Cu388       N390   2.075       .  S
Cu388       N396   2.077       .  S
N389        C393   1.341       .  A
N389        N390   1.320       .  A
N390        C391   1.346   1_545  A
C391        C392   1.385       .  A
C391        H874   1.082       .  S
C392        C393   1.378   1_565  A
C393        H395   1.082       .  S
H394        C871   1.082       .  S
N396        C400   1.345       .  A
N396        N397   1.323       .  A
N397        C398   1.345       .  A
C398        C399   1.382       .  A
C398        H401   1.082       .  S
C399        C400   1.383       .  A
C400        H402   1.082       .  S
N403        C407   1.346       .  A
N403        N404   1.320       .  A
N403       Cu411   2.074       .  S
N404        C405   1.341       .  A
N404       Cu410   2.051       .  S
C405        C406   1.378       .  A
C405        H408   1.082       .  S
C406        C407   1.385       .  A
C407        H409   1.082       .  S
Cu410       N413   2.051       .  S
Cu411       N421   2.075       .  S
Cu412       N414   2.076       .  S
Cu412       N420   2.077       .  S
N413        C417   1.341       .  A
N413        N414   1.320       .  A
N414        C415   1.346       .  A
C415        C416   1.385       .  A
C415       H1378   1.082       .  S
C416        C417   1.378       .  A
C417        H419   1.082       .  S
H418       C1375   1.082       .  S
N420        C424   1.345       .  A
N420        N421   1.324       .  A
N421        C422   1.345       .  A
C422        C423   1.382       .  A
C422        H425   1.082       .  S
C423        C424   1.383       .  A
C424        H426   1.082       .  S
N427        C431   1.346       .  A
N427        N428   1.320       .  A
N427       Cu435   2.075       .  S
N428        C429   1.341       .  A
N428       Cu434   2.052       .  S
C429        C430   1.378       .  A
C429        H432   1.082       .  S
C430        C431   1.385       .  A
C431       H1393   1.082       .  S
H433       C1391   1.082       .  S
Cu434       N437   2.052       .  S
Cu435       N445   2.076       .  S
Cu436       N438   2.075       .  S
Cu436       N444   2.076       .  S
N437        C441   1.341       .  A
N437        N438   1.320       .  A
N438        C439   1.346   1_545  A
C439        C440   1.385       .  A
C439        H922   1.082       .  S
C440        C441   1.378   1_565  A
C441        H443   1.082       .  S
H442        C919   1.082       .  S
N444        C448   1.345       .  A
N444        N445   1.323       .  A
N445        C446   1.345       .  A
C446        C447   1.382       .  A
C446        H449   1.082       .  S
C447        C448   1.383       .  A
C448        H450   1.082       .  S
N451        C455   1.346       .  A
N451        N452   1.320       .  A
N451       Cu459   2.074       .  S
N452        C453   1.341       .  A
N452       Cu458   2.051       .  S
C453        C454   1.378       .  A
C453        H456   1.082       .  S
C454        C455   1.385       .  A
C455        H457   1.082       .  S
Cu458       N461   2.051       .  S
Cu459       N469   2.075       .  S
Cu460       N462   2.076       .  S
Cu460       N468   2.077       .  S
N461        C465   1.341       .  A
N461        N462   1.320       .  A
N462        C463   1.346   1_545  A
C463        C464   1.385       .  A
C463        H946   1.082       .  S
C464        C465   1.378   1_565  A
C465        H467   1.082       .  S
H466        C943   1.082       .  S
N468        C472   1.345       .  A
N468        N469   1.324       .  A
N469        C470   1.345       .  A
C470        C471   1.382       .  A
C470        H473   1.082       .  S
C471        C472   1.383       .  A
C472        H474   1.082       .  S
C475       N1436   1.362       .  A
C475        N960   1.362   1_545  A
N476        C477   1.362       .  A
N476       C1435   1.362   1_455  A
C477        N958   1.361   1_545  A
N478        C957   1.361       .  A
N478       C1439   1.361   1_455  A
C479        N480   1.362       .  A
C479       N1438   1.361       .  A
N480        C955   1.362       .  A
C481        C500   1.481       .  S
C481       N1446   1.362   1_455  A
N482        C483   1.362       .  A
C483        C518   1.480       .  S
C483       N1444   1.361   1_455  A
N484       C1443   1.361       .  A
C485        C531   1.480       .  S
C485        N486   1.362       .  A
N486       C1441   1.362       .  A
O487       Cu495   2.008       .  S
O487        C497   1.277       .  A
O488       Cu495   2.008       .  S
O488        C498   1.277       .  A
O489       Cu495   2.029       .  S
O489        C499   1.280       .  A
O490       Cu495   2.026       .  S
O490        C500   1.280       .  A
O491       Cu496   2.026       .  S
O491        C500   1.280       .  A
O492       Cu496   2.029       .  S
O492        C499   1.280       .  A
O493       Cu496   2.008       .  S
O493        C498   1.277       .  A
O494       Cu496   2.008       .  S
O494        C497   1.277       .  A
Cu495      Cu496   2.374       .  S
C497        C603   1.468       .  S
C498        C579   1.468       .  S
C499        C503   1.483       .  S
C501        C532   1.482       .  S
C501        N502   1.362       .  A
C501        N506   1.361       .  A
N502        C503   1.363       .  A
C503        N504   1.363       .  A
N504        C505   1.363       .  A
C505        C517   1.482       .  S
C505        N506   1.361       .  A
O507       Cu515   2.027       .  S
O507        C517   1.280       .  A
O508       Cu515   2.024       .  S
O508        C518   1.280       .  A
O509       Cu515   2.007       .  S
O509        C519   1.277       .  A
O510       Cu515   2.007       .  S
O510        C520   1.277       .  A
O511       Cu516   2.008       .  S
O511        C520   1.277       .  A
O512       Cu516   2.008       .  S
O512        C519   1.277       .  A
O513       Cu516   2.024       .  S
O513        C518   1.279       .  A
O514       Cu516   2.026       .  S
O514        C517   1.280       .  A
Cu515      Cu516   2.374       .  S
C519        C675   1.467       .  S
C520        C651   1.468       .  S
O521       Cu529   2.024       .  S
O521        C531   1.279       .  A
O522       Cu529   2.026       .  S
O522        C532   1.280       .  A
O523       Cu529   2.009       .  S
O523        C533   1.277       .  A
O524       Cu529   2.009       .  S
O524        C534   1.277       .  A
O525       Cu530   2.007       .  S
O525        C534   1.277       .  A
O526       Cu530   2.007       .  S
O526        C533   1.277       .  A
O527       Cu530   2.027       .  S
O527        C532   1.280       .  A
O528       Cu530   2.024       .  S
O528        C531   1.280       .  A
Cu529      Cu530   2.374       .  S
C533        C555   1.468       .  S
C534        C627   1.468       .  S
N535        C539   1.346       .  A
N535        N536   1.320       .  A
N535       Cu543   2.074       .  S
N536        C537   1.341       .  A
N536       Cu542   2.052       .  S
C537        C538   1.378       .  A
C537        H540   1.082       .  S
C538        C717   1.459       .  S
C538        C539   1.385       .  A
C539        H541   1.082       .  S
Cu542       N545   2.051       .  S
Cu543       N553   2.075       .  S
Cu544       N546   2.075       .  S
Cu544       N552   2.076       .  S
N545        C549   1.341       .  A
N545        N546   1.320       .  A
N546        C547   1.346   1_565  A
C547        C548   1.385       .  A
C548        C760   1.459       .  S
C548        C549   1.378   1_545  A
C549        H551   1.082       .  S
N552        C556   1.345       .  A
N552        N553   1.323       .  A
N553        C554   1.345       .  A
C554        C555   1.382       .  A
C554        H557   1.082       .  S
C555        C556   1.383       .  A
C556        H558   1.082       .  S
N559        C563   1.346   1_455  A
N559        N560   1.320       .  A
N559       Cu567   2.075       .  S
N560        C561   1.341       .  A
N560       Cu566   2.052       .  S
C561        C562   1.378   1_455  A
C561        H564   1.082       .  S
C562        C732   1.459       .  S
C562        C563   1.385       .  A
C563       H1525   1.082       .  S
H565       C1523   1.082       .  S
Cu566       N569   2.052       .  S
Cu567       N577   2.076       .  S
Cu568       N570   2.075       .  S
Cu568       N576   2.076       .  S
N569        C573   1.341       .  A
N569        N570   1.320       .  A
N570        C571   1.346   1_565  A
C571        C572   1.385       .  A
C572        C761   1.459       .  S
C572        C573   1.378   1_545  A
C573        H575   1.082       .  S
N576        C580   1.345       .  A
N576        N577   1.323       .  A
N577        C578   1.345       .  A
C578        C579   1.383       .  A
C578        H581   1.082       .  S
C579        C580   1.383       .  A
C580        H582   1.082       .  S
N583        C587   1.346   1_455  A
N583        N584   1.320       .  A
N583       Cu591   2.075       .  S
N584        C585   1.341       .  A
N584       Cu590   2.052       .  S
C585        C586   1.378   1_455  A
C585        H588   1.082       .  S
C586        C705   1.459       .  S
C586        C587   1.385       .  A
C587       H1549   1.082       .  S
H589       C1547   1.082       .  S
Cu590       N593   2.052       .  S
Cu591       N601   2.076       .  S
Cu592       N594   2.075       .  S
Cu592       N600   2.076       .  S
N593        C597   1.341       .  A
N593        N594   1.320       .  A
N594        C595   1.346   1_565  A
C595        C596   1.385       .  A
C596        C746   1.459       .  S
C596        C597   1.378   1_545  A
C597        H599   1.082       .  S
N600        C604   1.345       .  A
N600        N601   1.323       .  A
N601        C602   1.345       .  A
C602        C603   1.383       .  A
C602        H605   1.082       .  S
C603        C604   1.383       .  A
C604        H606   1.082       .  S
N607        C611   1.346       .  A
N607        N608   1.320       .  A
N607       Cu615   2.074       .  S
N608        C609   1.341       .  A
N608       Cu614   2.052       .  S
C609        C610   1.378       .  A
C609        H612   1.082       .  S
C610        C692   1.459       .  S
C610        C611   1.385       .  A
C611        H613   1.082       .  S
Cu614       N617   2.051       .  S
Cu615       N625   2.075       .  S
Cu616       N618   2.075       .  S
Cu616       N624   2.076       .  S
N617        C621   1.341       .  A
N617        N618   1.320       .  A
N618        C619   1.346   1_565  A
C619        C620   1.385       .  A
C620        C747   1.459       .  S
C620        C621   1.378   1_545  A
C621        H623   1.082       .  S
N624        C628   1.345       .  A
N624        N625   1.323       .  A
N625        C626   1.345       .  A
C626        C627   1.382       .  A
C626        H629   1.082       .  S
C627        C628   1.383       .  A
C628        H630   1.082       .  S
N631        C635   1.346       .  A
N631        N632   1.320       .  A
N631       Cu639   2.074       .  S
N632        C633   1.341       .  A
N632       Cu638   2.052       .  S
C633        C634   1.378       .  A
C633        H636   1.082       .  S
C634        C720   1.459       .  S
C634        C635   1.385       .  A
C635        H637   1.082       .  S
Cu638       N641   2.051       .  S
Cu639       N649   2.075       .  S
Cu640       N642   2.075       .  S
Cu640       N648   2.076       .  S
N641        C645   1.341       .  A
N641        N642   1.320       .  A
N642        C643   1.346   1_455  A
C643        C644   1.385       .  A
C643       H1606   1.082       .  S
C644        C733   1.459       .  S
C644        C645   1.378   1_655  A
C645        H647   1.082       .  S
H646       C1603   1.082       .  S
N648        C652   1.345       .  A
N648        N649   1.323       .  A
N649        C650   1.345       .  A
C650        C651   1.382       .  A
C650        H653   1.082       .  S
C651        C652   1.383       .  A
C652        H654   1.082       .  S
N655        C659   1.346       .  A
N655        N656   1.320       .  A
N655       Cu663   2.074       .  S
N656        C657   1.341       .  A
N656       Cu662   2.052       .  S
C657        C658   1.378       .  A
C657        H660   1.082       .  S
C658        C689   1.459       .  S
C658        C659   1.385       .  A
C659        H661   1.082       .  S
Cu662       N665   2.051       .  S
Cu663       N673   2.075       .  S
Cu664       N666   2.075       .  S
Cu664       N672   2.076       .  S
N665        C669   1.341       .  A
N665        N666   1.320       .  A
N666        C667   1.346   1_455  A
C667        C668   1.385       .  A
C667       H1630   1.082       .  S
C668        C704   1.459       .  S
C668        C669   1.378   1_655  A
C669        H671   1.082       .  S
H670       C1627   1.082       .  S
N672        C676   1.345       .  A
N672        N673   1.323       .  A
N673        C674   1.345       .  A
C674        C675   1.382       .  A
C674        H677   1.082       .  S
C675        C676   1.383       .  A
C676        H678   1.082       .  S
O679       Cu687   2.006   1_556  S
O679        C689   1.275       .  A
O680       Cu687   2.007       .  S
O680        C690   1.278       .  A
O681       Cu687   2.006       .  S
O681        C691   1.278       .  A
O682       Cu687   2.006   1_556  S
O682        C692   1.275       .  A
O683       Cu688   2.006       .  S
O683        C692   1.278       .  A
O684       Cu688   2.006   1_554  S
O684        C691   1.275       .  A
O685       Cu688   2.006   1_554  S
O685        C690   1.275       .  A
O686       Cu688   2.006       .  S
O686        C689   1.278       .  A
Cu687      Cu688   2.381   1_554  S
C690        C838   1.459       .  S
C691        C862   1.459       .  S
O693       Cu701   2.006   1_554  S
O693       C1663   1.275       .  A
O694       Cu701   2.006       .  S
O694        C704   1.278   1_455  A
O695       Cu701   2.006       .  S
O695        C705   1.278   1_455  A
O696      Cu1661   2.006   1_554  S
O696        C706   1.275       .  A
O697       Cu702   2.006       .  S
O697        C706   1.278       .  A
O698       Cu702   2.006   1_556  S
O698       C1665   1.275       .  A
O699       Cu702   2.006   1_556  S
O699       C1664   1.275       .  A
O700       Cu702   2.006       .  S
O700        C703   1.278       .  A
Cu701      O1656   2.006   1_556  S
Cu701     Cu1662   2.381   1_456  S
Cu702     Cu1661   2.381   1_554  S
C703        C848   1.459       .  S
C703       O1653   1.275       .  A
C704       O1659   1.275       .  A
C705       O1658   1.275       .  A
C706        C814   1.459       .  S
O707       Cu715   2.006       .  S
O707        C717   1.275       .  A
O708       Cu715   2.006       .  S
O708        C718   1.278       .  A
O709       Cu715   2.007       .  S
O709        C719   1.278       .  A
O710       Cu715   2.006       .  S
O710        C720   1.275       .  A
O711       Cu716   2.006       .  S
O711        C720   1.278       .  A
O712       Cu716   2.006       .  S
O712        C719   1.275       .  A
O713       Cu716   2.006       .  S
O713        C718   1.275       .  A
O714       Cu716   2.006       .  S
O714        C717   1.278       .  A
Cu715      Cu716   2.381       .  S
C718        C934   1.459       .  S
C719        C886   1.459       .  S
O721      Cu1689   2.006       .  S
O721        C731   1.275       .  A
O722       Cu729   2.006       .  S
O722        C732   1.278   1_455  A
O723       Cu729   2.006       .  S
O723        C733   1.278   1_455  A
O724       Cu729   2.006       .  S
O724       C1694   1.275       .  A
O725       Cu730   2.006       .  S
O725        C734   1.278       .  A
O726       Cu730   2.006       .  S
O726       C1693   1.275       .  A
O727       Cu730   2.007       .  S
O727       C1692   1.275       .  A
O728       Cu730   2.006       .  S
O728        C731   1.278       .  A
Cu729      O1681   2.006       .  S
Cu729     Cu1690   2.381   1_455  S
Cu730     Cu1689   2.381       .  S
C731        C910   1.459       .  S
C732       O1687   1.275       .  A
C733       O1686   1.275       .  A
C734        C896   1.459       .  S
C734       O1684   1.275       .  A
O735        C745   1.275       .  A
O736       Cu743   2.006       .  S
O736        C746   1.278   1_565  A
O737       Cu743   2.006       .  S
O737        C747   1.278   1_565  A
O738       Cu743   2.006   1_554  S
O739       Cu744   2.006       .  S
O739        C748   1.278       .  A
O740       Cu744   2.006   1_556  S
O741       Cu744   2.006   1_556  S
O742       Cu744   2.006       .  S
O742        C745   1.278       .  A
C745        C824   1.459       .  S
C748        C872   1.459       .  S
O749       Cu757   2.006       .  S
O750       Cu757   2.006       .  S
O750        C760   1.278   1_565  A
O751       Cu757   2.006       .  S
O751        C761   1.278   1_565  A
O752       Cu757   2.006       .  S
O753       Cu758   2.006       .  S
O753        C762   1.278       .  A
O754       Cu758   2.006       .  S
O755       Cu758   2.006       .  S
O756       Cu758   2.006       .  S
O756        C759   1.278       .  A
C759        C944   1.459       .  S
C762        C920   1.459       .  S
O763       Cu771   2.008       .  S
O763        C773   1.277       .  A
O764       Cu771   2.008       .  S
O764        C774   1.277       .  A
O765       Cu771   2.029       .  S
O765        C775   1.280       .  A
O766       Cu771   2.026       .  S
O766        C776   1.280       .  A
O767       Cu772   2.026       .  S
O767        C776   1.280       .  A
O768       Cu772   2.029       .  S
O768        C775   1.280       .  A
O769       Cu772   2.008       .  S
O769        C774   1.277       .  A
O770       Cu772   2.008       .  S
O770        C773   1.277       .  A
Cu771      Cu772   2.374       .  S
C773        C831   1.468       .  S
C774        C927   1.468       .  S
C775        C779   1.483       .  S
C776        C955   1.482       .  S
C777        C793   1.482       .  S
C777        N778   1.362       .  A
C777        N782   1.361       .  A
N778        C779   1.363       .  A
C779        N780   1.363       .  A
N780        C781   1.363       .  A
C781        C807   1.482       .  S
C781        N782   1.361       .  A
O783       Cu791   2.026       .  S
O783        C793   1.280       .  A
O784       Cu791   2.024       .  S
O784        C794   1.279       .  A
O785       Cu791   2.009       .  S
O785        C795   1.277       .  A
O786       Cu791   2.009       .  S
O786        C796   1.277       .  A
O787       Cu792   2.007       .  S
O787        C796   1.277       .  A
O788       Cu792   2.007       .  S
O788        C795   1.277       .  A
O789       Cu792   2.024       .  S
O789        C794   1.280       .  A
O790       Cu792   2.027       .  S
O790        C793   1.280       .  A
Cu791      Cu792   2.374       .  S
C794        C957   1.480       .  S
C795        C951   1.468       .  S
C796        C879   1.468       .  S
O797       Cu805   2.027       .  S
O797        C807   1.280       .  A
O798       Cu805   2.024       .  S
O798        C808   1.280       .  A
O799       Cu805   2.007       .  S
O799        C809   1.277       .  A
O800       Cu805   2.007       .  S
O800        C810   1.277       .  A
O801       Cu806   2.009       .  S
O801        C810   1.277       .  A
O802       Cu806   2.009       .  S
O802        C809   1.277       .  A
O803       Cu806   2.024       .  S
O803        C808   1.279       .  A
O804       Cu806   2.026       .  S
O804        C807   1.280       .  A
Cu805      Cu806   2.374       .  S
C808        C959   1.480       .  S
C809        C903   1.468       .  S
C810        C855   1.468       .  S
N811        C815   1.346       .  A
N811        N812   1.320       .  A
N811       Cu819   2.075       .  S
N812        C813   1.341       .  A
N812       Cu818   2.052       .  S
C813        C814   1.378       .  A
C813        H816   1.082       .  S
C814        C815   1.385       .  A
C815       H1777   1.082       .  S
H817       C1775   1.082       .  S
Cu818       N821   2.052       .  S
Cu819       N829   2.076       .  S
Cu820       N822   2.075       .  S
Cu820       N828   2.076       .  S
N821        C825   1.341       .  A
N821        N822   1.320       .  A
N822        C823   1.346       .  A
C823        C824   1.385       .  A
C824        C825   1.378       .  A
C825        H827   1.082       .  S
N828        C832   1.345       .  A
N828        N829   1.323       .  A
N829        C830   1.345       .  A
C830        C831   1.382       .  A
C830        H833   1.082       .  S
C831        C832   1.382       .  A
C832        H834   1.082       .  S
N835        C839   1.346       .  A
N835        N836   1.320       .  A
N835       Cu843   2.074       .  S
N836        C837   1.341       .  A
N836       Cu842   2.051       .  S
C837        C838   1.378       .  A
C837        H840   1.082       .  S
C838        C839   1.385       .  A
C839        H841   1.082       .  S
Cu842       N845   2.051       .  S
Cu843       N853   2.075       .  S
Cu844       N846   2.075       .  S
Cu844       N852   2.077       .  S
N845        C849   1.341       .  A
N845        N846   1.320       .  A
N846        C847   1.346       .  A
C847        C848   1.385       .  A
C847       H1810   1.082       .  S
C848        C849   1.378       .  A
C849        H851   1.082       .  S
H850       C1807   1.082       .  S
N852        C856   1.345       .  A
N852        N853   1.323       .  A
N853        C854   1.345       .  A
C854        C855   1.382       .  A
C854        H857   1.082       .  S
C855        C856   1.383       .  A
C856        H858   1.082       .  S
N859        C863   1.346       .  A
N859        N860   1.320       .  A
N859       Cu867   2.074       .  S
N860        C861   1.341       .  A
N860       Cu866   2.051       .  S
C861        C862   1.378       .  A
C861        H864   1.082       .  S
C862        C863   1.385       .  A
C863        H865   1.082       .  S
Cu866       N869   2.051       .  S
Cu867       N877   2.075       .  S
Cu868       N870   2.075       .  S
Cu868       N876   2.077       .  S
N869        C873   1.341       .  A
N869        N870   1.320       .  A
N870        C871   1.346       .  A
C871        C872   1.385       .  A
C872        C873   1.378       .  A
C873        H875   1.082       .  S
N876        C880   1.345       .  A
N876        N877   1.324       .  A
N877        C878   1.345       .  A
C878        C879   1.382       .  A
C878        H881   1.082       .  S
C879        C880   1.383       .  A
C880        H882   1.082       .  S
N883        C887   1.346       .  A
N883        N884   1.320       .  A
N883       Cu891   2.074       .  S
N884        C885   1.341       .  A
N884       Cu890   2.051       .  S
C885        C886   1.378       .  A
C885        H888   1.082       .  S
C886        C887   1.385       .  A
C887        H889   1.082       .  S
Cu890       N893   2.051       .  S
Cu891       N901   2.075       .  S
Cu892       N894   2.076       .  S
Cu892       N900   2.077       .  S
N893        C897   1.341       .  A
N893        N894   1.320       .  A
N894        C895   1.346       .  A
C895        C896   1.385       .  A
C895       H1858   1.082       .  S
C896        C897   1.378       .  A
C897        H899   1.082       .  S
H898       C1855   1.082       .  S
N900        C904   1.345       .  A
N900        N901   1.324       .  A
N901        C902   1.345       .  A
C902        C903   1.382       .  A
C902        H905   1.082       .  S
C903        C904   1.383       .  A
C904        H906   1.082       .  S
N907        C911   1.346       .  A
N907        N908   1.320       .  A
N907       Cu915   2.075       .  S
N908        C909   1.341       .  A
N908       Cu914   2.052       .  S
C909        C910   1.378       .  A
C909        H912   1.082       .  S
C910        C911   1.385       .  A
C911       H1873   1.082       .  S
H913       C1871   1.082       .  S
Cu914       N917   2.052       .  S
Cu915       N925   2.076       .  S
Cu916       N918   2.075       .  S
Cu916       N924   2.076       .  S
N917        C921   1.341       .  A
N917        N918   1.320       .  A
N918        C919   1.346       .  A
C919        C920   1.385       .  A
C920        C921   1.378       .  A
C921        H923   1.082       .  S
N924        C928   1.345       .  A
N924        N925   1.323       .  A
N925        C926   1.345       .  A
C926        C927   1.382       .  A
C926        H929   1.082       .  S
C927        C928   1.383       .  A
C928        H930   1.082       .  S
N931        C935   1.346       .  A
N931        N932   1.320       .  A
N931       Cu939   2.074       .  S
N932        C933   1.341       .  A
N932       Cu938   2.051       .  S
C933        C934   1.378       .  A
C933        H936   1.082       .  S
C934        C935   1.385       .  A
C935        H937   1.082       .  S
Cu938       N941   2.051       .  S
Cu939       N949   2.075       .  S
Cu940       N942   2.076       .  S
Cu940       N948   2.077       .  S
N941        C945   1.341       .  A
N941        N942   1.320       .  A
N942        C943   1.346       .  A
C943        C944   1.385       .  A
C944        C945   1.378       .  A
C945        H947   1.082       .  S
N948        C952   1.345       .  A
N948        N949   1.324       .  A
N949        C950   1.345       .  A
C950        C951   1.382       .  A
C950        H953   1.082       .  S
C951        C952   1.383       .  A
C952        H954   1.082       .  S
C955       N1916   1.362       .  A
N956       C1915   1.362   1_455  A
N956        C957   1.362       .  A
N958       C1919   1.361   1_455  A
C959       N1918   1.361       .  A
C959        N960   1.362       .  A
C961        C980   1.481       .  S
C961       N1442   1.362       .  A
N962       C1441   1.362   1_545  A
N962        C963   1.362       .  A
C963        C998   1.480       .  S
N964       C1445   1.361   1_545  A
C965       C1011   1.480       .  S
C965       N1444   1.361       .  A
C965        N966   1.362       .  A
O967       Cu975   2.008       .  S
O967        C977   1.277       .  A
O968       Cu975   2.008       .  S
O968        C978   1.277       .  A
O969       Cu975   2.029       .  S
O969        C979   1.280       .  A
O970       Cu975   2.026       .  S
O970        C980   1.280       .  A
O971       Cu976   2.026       .  S
O971        C980   1.280       .  A
O972       Cu976   2.029       .  S
O972        C979   1.280       .  A
O973       Cu976   2.008       .  S
O973        C978   1.277       .  A
O974       Cu976   2.008       .  S
O974        C977   1.277       .  A
Cu975      Cu976   2.374       .  S
C977       C1083   1.468       .  S
C978       C1059   1.468       .  S
C979        C983   1.483       .  S
C981       C1012   1.482       .  S
C981        N982   1.362       .  A
C981        N986   1.361       .  A
N982        C983   1.363       .  A
C983        N984   1.363       .  A
N984        C985   1.363       .  A
C985        C997   1.482       .  S
C985        N986   1.361       .  A
O987       Cu995   2.027       .  S
O987        C997   1.280       .  A
O988       Cu995   2.024       .  S
O988        C998   1.280       .  A
O989       Cu995   2.007       .  S
O989        C999   1.277       .  A
O990       Cu995   2.007       .  S
O990       C1000   1.277       .  A
O991       Cu996   2.008       .  S
O991       C1000   1.277       .  A
O992       Cu996   2.008       .  S
O992        C999   1.277       .  A
O993       Cu996   2.024       .  S
O993        C998   1.279       .  A
O994       Cu996   2.026       .  S
O994        C997   1.280       .  A
Cu995      Cu996   2.374       .  S
C999       C1155   1.467       .  S
C1000      C1131   1.468       .  S
O1001     Cu1009   2.024       .  S
O1001      C1011   1.279       .  A
O1002     Cu1009   2.026       .  S
O1002      C1012   1.280       .  A
O1003     Cu1009   2.008       .  S
O1003      C1013   1.277       .  A
O1004     Cu1009   2.009       .  S
O1004      C1014   1.277       .  A
O1005     Cu1010   2.007       .  S
O1005      C1014   1.277       .  A
O1006     Cu1010   2.007       .  S
O1006      C1013   1.277       .  A
O1007     Cu1010   2.027       .  S
O1007      C1012   1.280       .  A
O1008     Cu1010   2.024       .  S
O1008      C1011   1.280       .  A
Cu1009    Cu1010   2.374       .  S
C1013      C1035   1.468       .  S
C1014      C1107   1.468       .  S
N1015      C1019   1.346       .  A
N1015      N1016   1.320       .  A
N1015     Cu1023   2.074       .  S
N1016      C1017   1.341       .  A
N1016     Cu1022   2.052       .  S
C1017      C1018   1.378       .  A
C1017      H1020   1.082       .  S
C1018      C1197   1.459       .  S
C1018      C1019   1.385       .  A
C1019      H1021   1.082       .  S
Cu1022     N1025   2.051       .  S
Cu1023     N1033   2.075       .  S
Cu1024     N1026   2.075       .  S
Cu1024     N1032   2.076       .  S
N1025      C1029   1.341       .  A
N1025      N1026   1.320       .  A
N1026      C1027   1.346       .  A
C1027      C1028   1.385       .  A
C1027      H1510   1.082       .  S
C1028      C1240   1.459       .  S
C1028      C1029   1.378       .  A
C1029      H1031   1.082       .  S
H1030      C1507   1.082       .  S
N1032      C1036   1.345       .  A
N1032      N1033   1.323       .  A
N1033      C1034   1.345       .  A
C1034      C1035   1.382       .  A
C1034      H1037   1.082       .  S
C1035      C1036   1.383       .  A
C1036      H1038   1.082       .  S
N1039      C1043   1.346       .  A
N1039      N1040   1.320       .  A
N1039     Cu1047   2.075       .  S
N1040      C1041   1.341       .  A
N1040     Cu1046   2.052       .  S
C1041      C1042   1.378       .  A
C1041      H1044   1.082       .  S
C1042      C1212   1.459       .  S
C1042      C1043   1.385       .  A
Cu1046     N1049   2.052       .  S
Cu1047     N1057   2.076       .  S
Cu1048     N1050   2.075       .  S
Cu1048     N1056   2.076       .  S
N1049      C1053   1.341       .  A
N1049      N1050   1.320       .  A
N1050      C1051   1.346       .  A
C1051      C1052   1.385       .  A
C1051      H1534   1.082       .  S
C1052      C1241   1.459       .  S
C1052      C1053   1.378       .  A
C1053      H1055   1.082       .  S
H1054      C1531   1.082       .  S
N1056      C1060   1.345       .  A
N1056      N1057   1.323       .  A
N1057      C1058   1.345       .  A
C1058      C1059   1.383       .  A
C1058      H1061   1.082       .  S
C1059      C1060   1.383       .  A
C1060      H1062   1.082       .  S
N1063      C1067   1.346       .  A
N1063      N1064   1.320       .  A
N1063     Cu1071   2.075       .  S
N1064      C1065   1.341       .  A
N1064     Cu1070   2.052       .  S
C1065      C1066   1.378       .  A
C1065      H1068   1.082       .  S
C1066      C1185   1.459       .  S
C1066      C1067   1.385       .  A
Cu1070     N1073   2.052       .  S
Cu1071     N1081   2.076       .  S
Cu1072     N1074   2.075       .  S
Cu1072     N1080   2.076       .  S
N1073      C1077   1.341       .  A
N1073      N1074   1.320       .  A
N1074      C1075   1.346       .  A
C1075      C1076   1.385       .  A
C1075      H1558   1.082       .  S
C1076      C1226   1.459       .  S
C1076      C1077   1.378       .  A
C1077      H1079   1.082       .  S
H1078      C1555   1.082       .  S
N1080      C1084   1.345       .  A
N1080      N1081   1.323       .  A
N1081      C1082   1.345       .  A
C1082      C1083   1.383       .  A
C1082      H1085   1.082       .  S
C1083      C1084   1.383       .  A
C1084      H1086   1.082       .  S
N1087      C1091   1.346       .  A
N1087      N1088   1.320       .  A
N1087     Cu1095   2.074       .  S
N1088      C1089   1.341       .  A
N1088     Cu1094   2.052       .  S
C1089      C1090   1.378       .  A
C1089      H1092   1.082       .  S
C1090      C1172   1.459       .  S
C1090      C1091   1.385       .  A
C1091      H1093   1.082       .  S
Cu1094     N1097   2.051       .  S
Cu1095     N1105   2.075       .  S
Cu1096     N1098   2.075       .  S
Cu1096     N1104   2.076       .  S
N1097      C1101   1.341       .  A
N1097      N1098   1.320       .  A
N1098      C1099   1.346       .  A
C1099      C1100   1.385       .  A
C1099      H1582   1.082       .  S
C1100      C1227   1.459       .  S
C1100      C1101   1.378       .  A
C1101      H1103   1.082       .  S
H1102      C1579   1.082       .  S
N1104      C1108   1.345       .  A
N1104      N1105   1.323       .  A
N1105      C1106   1.345       .  A
C1106      C1107   1.382       .  A
C1106      H1109   1.082       .  S
C1107      C1108   1.383       .  A
C1108      H1110   1.082       .  S
N1111      C1115   1.346       .  A
N1111      N1112   1.320       .  A
N1111     Cu1119   2.074       .  S
N1112      C1113   1.341       .  A
N1112     Cu1118   2.052       .  S
C1113      C1114   1.378       .  A
C1113      H1116   1.082       .  S
C1114      C1200   1.459       .  S
C1114      C1115   1.385       .  A
C1115      H1117   1.082       .  S
Cu1118     N1121   2.051       .  S
Cu1119     N1129   2.075       .  S
Cu1120     N1122   2.075       .  S
Cu1120     N1128   2.076       .  S
N1121      C1125   1.341       .  A
N1121      N1122   1.320       .  A
N1122      C1123   1.346       .  A
C1123      C1124   1.385       .  A
C1124      C1213   1.459       .  S
C1124      C1125   1.378       .  A
C1125      H1127   1.082       .  S
N1128      C1132   1.345       .  A
N1128      N1129   1.323       .  A
N1129      C1130   1.345       .  A
C1130      C1131   1.382       .  A
C1130      H1133   1.082       .  S
C1131      C1132   1.383       .  A
C1132      H1134   1.082       .  S
N1135      C1139   1.346       .  A
N1135      N1136   1.320       .  A
N1135     Cu1143   2.074       .  S
N1136      C1137   1.341       .  A
N1136     Cu1142   2.052       .  S
C1137      C1138   1.378       .  A
C1137      H1140   1.082       .  S
C1138      C1169   1.459       .  S
C1138      C1139   1.385       .  A
C1139      H1141   1.082       .  S
Cu1142     N1145   2.051       .  S
Cu1143     N1153   2.075       .  S
Cu1144     N1146   2.075       .  S
Cu1144     N1152   2.076       .  S
N1145      C1149   1.341       .  A
N1145      N1146   1.320       .  A
N1146      C1147   1.346       .  A
C1147      C1148   1.385       .  A
C1148      C1184   1.459       .  S
C1148      C1149   1.378       .  A
C1149      H1151   1.082       .  S
N1152      C1156   1.345       .  A
N1152      N1153   1.323       .  A
N1153      C1154   1.345       .  A
C1154      C1155   1.382       .  A
C1154      H1157   1.082       .  S
C1155      C1156   1.383       .  A
C1156      H1158   1.082       .  S
O1159     Cu1167   2.006   1_556  S
O1159      C1169   1.275       .  A
O1160     Cu1167   2.007       .  S
O1160      C1170   1.278       .  A
O1161     Cu1167   2.006       .  S
O1161      C1171   1.278       .  A
O1162     Cu1167   2.006   1_556  S
O1162      C1172   1.275       .  A
O1163     Cu1168   2.006       .  S
O1163      C1172   1.278       .  A
O1164     Cu1168   2.006   1_554  S
O1164      C1171   1.275       .  A
O1165     Cu1168   2.006   1_554  S
O1165      C1170   1.275       .  A
O1166     Cu1168   2.006       .  S
O1166      C1169   1.278       .  A
Cu1167    Cu1168   2.381   1_554  S
C1170      C1318   1.459       .  S
C1171      C1342   1.459       .  S
O1173     Cu1181   2.006   1_554  S
O1174     Cu1181   2.006       .  S
O1174      C1184   1.278       .  A
O1175     Cu1181   2.006       .  S
O1175      C1185   1.278       .  A
O1176      C1186   1.275       .  A
O1177     Cu1182   2.006       .  S
O1177      C1186   1.278   1_655  A
O1178     Cu1182   2.006   1_556  S
O1179     Cu1182   2.006   1_556  S
O1180     Cu1182   2.006       .  S
O1180      C1183   1.278   1_655  A
C1183      C1328   1.459       .  S
C1186      C1294   1.459       .  S
O1187     Cu1195   2.006       .  S
O1187      C1197   1.275       .  A
O1188     Cu1195   2.006       .  S
O1188      C1198   1.278       .  A
O1189     Cu1195   2.007       .  S
O1189      C1199   1.278       .  A
O1190     Cu1195   2.006       .  S
O1190      C1200   1.275       .  A
O1191     Cu1196   2.006       .  S
O1191      C1200   1.278       .  A
O1192     Cu1196   2.006       .  S
O1192      C1199   1.275       .  A
O1193     Cu1196   2.006       .  S
O1193      C1198   1.275       .  A
O1194     Cu1196   2.006       .  S
O1194      C1197   1.278       .  A
Cu1195    Cu1196   2.381       .  S
C1198      C1414   1.459       .  S
C1199      C1366   1.459       .  S
O1201      C1211   1.275       .  A
O1202     Cu1209   2.006       .  S
O1202      C1212   1.278       .  A
O1203     Cu1209   2.006       .  S
O1203      C1213   1.278       .  A
O1204     Cu1209   2.006       .  S
O1205     Cu1210   2.006       .  S
O1205      C1214   1.278   1_655  A
O1206     Cu1210   2.006       .  S
O1207     Cu1210   2.007       .  S
O1208     Cu1210   2.006       .  S
O1208      C1211   1.278   1_655  A
C1211      C1390   1.459       .  S
C1214      C1376   1.459       .  S
O1215     Cu1703   2.006   1_554  S
O1215      C1225   1.275       .  A
O1216     Cu1223   2.006       .  S
O1216      C1226   1.278       .  A
O1217     Cu1223   2.006       .  S
O1217      C1227   1.278       .  A
O1218     Cu1223   2.006   1_554  S
O1218      C1708   1.275       .  A
O1219     Cu1224   2.006       .  S
O1219      C1228   1.278   1_545  A
O1220     Cu1224   2.006   1_556  S
O1220      C1707   1.275       .  A
O1221     Cu1224   2.006   1_556  S
O1221      C1706   1.275       .  A
O1222     Cu1224   2.006       .  S
O1222      C1225   1.278   1_545  A
Cu1223     O1695   2.006   1_556  S
Cu1223    Cu1704   2.381   1_556  S
Cu1224    Cu1703   2.381   1_544  S
C1225      C1304   1.459       .  S
C1226      O1701   1.275       .  A
C1227      O1700   1.275       .  A
C1228      C1352   1.459       .  S
C1228      O1698   1.275       .  A
O1229     Cu1237   2.006       .  S
O1229      C1719   1.275       .  A
O1230     Cu1237   2.006       .  S
O1230      C1240   1.278       .  A
O1231     Cu1237   2.006       .  S
O1231      C1241   1.278       .  A
O1232     Cu1237   2.006       .  S
O1232      C1722   1.275       .  A
O1233     Cu1238   2.006       .  S
O1233      C1242   1.278   1_545  A
O1234     Cu1238   2.006       .  S
O1234      C1721   1.275       .  A
O1235     Cu1238   2.006       .  S
O1235      C1720   1.275       .  A
O1236     Cu1238   2.006       .  S
O1236      C1239   1.278   1_545  A
Cu1237    Cu1718   2.381       .  S
Cu1238    Cu1717   2.381   1_545  S
C1239      C1424   1.459       .  S
C1239      O1709   1.275       .  A
C1240      O1715   1.275       .  A
C1241      O1714   1.275       .  A
C1242      C1400   1.459       .  S
C1242      O1712   1.275       .  A
O1243     Cu1251   2.008       .  S
O1243      C1253   1.277       .  A
O1244     Cu1251   2.008       .  S
O1244      C1254   1.277       .  A
O1245     Cu1251   2.028       .  S
O1245      C1255   1.280       .  A
O1246     Cu1251   2.026       .  S
O1246      C1256   1.280       .  A
O1247     Cu1252   2.026       .  S
O1247      C1256   1.280       .  A
O1248     Cu1252   2.029       .  S
O1248      C1255   1.280       .  A
O1249     Cu1252   2.008       .  S
O1249      C1254   1.277       .  A
O1250     Cu1252   2.008       .  S
O1250      C1253   1.277       .  A
Cu1251    Cu1252   2.374       .  S
C1253      C1311   1.468       .  S
C1254      C1407   1.468       .  S
C1255      C1259   1.483       .  S
C1256      C1435   1.482       .  S
C1257      C1273   1.482       .  S
C1257      N1258   1.362       .  A
C1257      N1262   1.361       .  A
N1258      C1259   1.363       .  A
C1259      N1260   1.363       .  A
N1260      C1261   1.363       .  A
C1261      C1287   1.482       .  S
C1261      N1262   1.361       .  A
O1263     Cu1271   2.026       .  S
O1263      C1273   1.280       .  A
O1264     Cu1271   2.024       .  S
O1264      C1274   1.279       .  A
O1265     Cu1271   2.009       .  S
O1265      C1275   1.277       .  A
O1266     Cu1271   2.009       .  S
O1266      C1276   1.277       .  A
O1267     Cu1272   2.007       .  S
O1267      C1276   1.277       .  A
O1268     Cu1272   2.007       .  S
O1268      C1275   1.277       .  A
O1269     Cu1272   2.024       .  S
O1269      C1274   1.280       .  A
O1270     Cu1272   2.027       .  S
O1270      C1273   1.280       .  A
Cu1271    Cu1272   2.374       .  S
C1274      C1437   1.480       .  S
C1275      C1431   1.468       .  S
C1276      C1359   1.468       .  S
O1277     Cu1285   2.027       .  S
O1277      C1287   1.280       .  A
O1278     Cu1285   2.024       .  S
O1278      C1288   1.280       .  A
O1279     Cu1285   2.007       .  S
O1279      C1289   1.277       .  A
O1280     Cu1285   2.007       .  S
O1280      C1290   1.277       .  A
O1281     Cu1286   2.009       .  S
O1281      C1290   1.277       .  A
O1282     Cu1286   2.009       .  S
O1282      C1289   1.277       .  A
O1283     Cu1286   2.024       .  S
O1283      C1288   1.279       .  A
O1284     Cu1286   2.026       .  S
O1284      C1287   1.280       .  A
Cu1285    Cu1286   2.374       .  S
C1288      C1439   1.480       .  S
C1289      C1383   1.468       .  S
C1290      C1335   1.468       .  S
N1291      C1295   1.346   1_655  A
N1291      N1292   1.320       .  A
N1291     Cu1299   2.075       .  S
N1292      C1293   1.341       .  A
N1292     Cu1298   2.052       .  S
C1293      C1294   1.378   1_655  A
C1293      H1296   1.082       .  S
C1294      C1295   1.385       .  A
Cu1298     N1301   2.052       .  S
Cu1299     N1309   2.076       .  S
Cu1300     N1302   2.075       .  S
Cu1300     N1308   2.076       .  S
N1301      C1305   1.341       .  A
N1301      N1302   1.320       .  A
N1302      C1303   1.346   1_545  A
C1303      C1304   1.385       .  A
C1303      H1786   1.082       .  S
C1304      C1305   1.378   1_565  A
C1305      H1307   1.082       .  S
H1306      C1783   1.082       .  S
N1308      C1312   1.345       .  A
N1308      N1309   1.323       .  A
N1309      C1310   1.345       .  A
C1310      C1311   1.382       .  A
C1310      H1313   1.082       .  S
C1311      C1312   1.382       .  A
C1312      H1314   1.082       .  S
N1315      C1319   1.346       .  A
N1315      N1316   1.320       .  A
N1315     Cu1323   2.074       .  S
N1316      C1317   1.341       .  A
N1316     Cu1322   2.051       .  S
C1317      C1318   1.378       .  A
C1317      H1320   1.082       .  S
C1318      C1319   1.385       .  A
C1319      H1321   1.082       .  S
Cu1322     N1325   2.051       .  S
Cu1323     N1333   2.075       .  S
Cu1324     N1326   2.075       .  S
Cu1324     N1332   2.077       .  S
N1325      C1329   1.341       .  A
N1325      N1326   1.320       .  A
N1326      C1327   1.346   1_655  A
C1327      C1328   1.385       .  A
C1328      C1329   1.378   1_455  A
C1329      H1331   1.082       .  S
N1332      C1336   1.345       .  A
N1332      N1333   1.323       .  A
N1333      C1334   1.345       .  A
C1334      C1335   1.382       .  A
C1334      H1337   1.082       .  S
C1335      C1336   1.383       .  A
C1336      H1338   1.082       .  S
N1339      C1343   1.346       .  A
N1339      N1340   1.320       .  A
N1339     Cu1347   2.074       .  S
N1340      C1341   1.341       .  A
N1340     Cu1346   2.051       .  S
C1341      C1342   1.378       .  A
C1341      H1344   1.082       .  S
C1342      C1343   1.385       .  A
C1343      H1345   1.082       .  S
Cu1346     N1349   2.051       .  S
Cu1347     N1357   2.075       .  S
Cu1348     N1350   2.075       .  S
Cu1348     N1356   2.077       .  S
N1349      C1353   1.341       .  A
N1349      N1350   1.320       .  A
N1350      C1351   1.346   1_545  A
C1351      C1352   1.385       .  A
C1351      H1834   1.082       .  S
C1352      C1353   1.378   1_565  A
C1353      H1355   1.082       .  S
H1354      C1831   1.082       .  S
N1356      C1360   1.345       .  A
N1356      N1357   1.323       .  A
N1357      C1358   1.345       .  A
C1358      C1359   1.382       .  A
C1358      H1361   1.082       .  S
C1359      C1360   1.383       .  A
C1360      H1362   1.082       .  S
N1363      C1367   1.346       .  A
N1363      N1364   1.320       .  A
N1363     Cu1371   2.074       .  S
N1364      C1365   1.341       .  A
N1364     Cu1370   2.051       .  S
C1365      C1366   1.378       .  A
C1365      H1368   1.082       .  S
C1366      C1367   1.385       .  A
C1367      H1369   1.082       .  S
Cu1370     N1373   2.051       .  S
Cu1371     N1381   2.075       .  S
Cu1372     N1374   2.076       .  S
Cu1372     N1380   2.077       .  S
N1373      C1377   1.341       .  A
N1373      N1374   1.320       .  A
N1374      C1375   1.346   1_655  A
C1375      C1376   1.385       .  A
C1376      C1377   1.378   1_455  A
C1377      H1379   1.082       .  S
N1380      C1384   1.345       .  A
N1380      N1381   1.324       .  A
N1381      C1382   1.345       .  A
C1382      C1383   1.382       .  A
C1382      H1385   1.082       .  S
C1383      C1384   1.383       .  A
C1384      H1386   1.082       .  S
N1387      C1391   1.346   1_655  A
N1387      N1388   1.320       .  A
N1387     Cu1395   2.075       .  S
N1388      C1389   1.341       .  A
N1388     Cu1394   2.052       .  S
C1389      C1390   1.378   1_655  A
C1389      H1392   1.082       .  S
C1390      C1391   1.385       .  A
Cu1394     N1397   2.052       .  S
Cu1395     N1405   2.076       .  S
Cu1396     N1398   2.075       .  S
Cu1396     N1404   2.076       .  S
N1397      C1401   1.341       .  A
N1397      N1398   1.320       .  A
N1398      C1399   1.346   1_545  A
C1399      C1400   1.385       .  A
C1399      H1882   1.082       .  S
C1400      C1401   1.378   1_565  A
C1401      H1403   1.082       .  S
H1402      C1879   1.082       .  S
N1404      C1408   1.345       .  A
N1404      N1405   1.323       .  A
N1405      C1406   1.345       .  A
C1406      C1407   1.382       .  A
C1406      H1409   1.082       .  S
C1407      C1408   1.383       .  A
C1408      H1410   1.082       .  S
N1411      C1415   1.346       .  A
N1411      N1412   1.320       .  A
N1411     Cu1419   2.074       .  S
N1412      C1413   1.341       .  A
N1412     Cu1418   2.051       .  S
C1413      C1414   1.378       .  A
C1413      H1416   1.082       .  S
C1414      C1415   1.385       .  A
C1415      H1417   1.082       .  S
Cu1418     N1421   2.051       .  S
Cu1419     N1429   2.075       .  S
Cu1420     N1422   2.076       .  S
Cu1420     N1428   2.077       .  S
N1421      C1425   1.341       .  A
N1421      N1422   1.320       .  A
N1422      C1423   1.346   1_545  A
C1423      C1424   1.385       .  A
C1423      H1906   1.082       .  S
C1424      C1425   1.378   1_565  A
C1425      H1427   1.082       .  S
H1426      C1903   1.082       .  S
N1428      C1432   1.345       .  A
N1428      N1429   1.324       .  A
N1429      C1430   1.345       .  A
C1430      C1431   1.382       .  A
C1430      H1433   1.082       .  S
C1431      C1432   1.383       .  A
C1432      H1434   1.082       .  S
C1435      N1920   1.362   1_545  A
N1436      C1437   1.362       .  A
C1437      N1918   1.361   1_545  A
N1438      C1917   1.361       .  A
C1439      N1440   1.362       .  A
N1440      C1915   1.362       .  A
C1441      C1460   1.481       .  S
N1442      C1443   1.362       .  A
C1443      C1478   1.480       .  S
C1445      C1491   1.480       .  S
C1445      N1446   1.362       .  A
O1447     Cu1455   2.008       .  S
O1447      C1457   1.277       .  A
O1448     Cu1455   2.008       .  S
O1448      C1458   1.277       .  A
O1449     Cu1455   2.029       .  S
O1449      C1459   1.280       .  A
O1450     Cu1455   2.026       .  S
O1450      C1460   1.280       .  A
O1451     Cu1456   2.026       .  S
O1451      C1460   1.280       .  A
O1452     Cu1456   2.029       .  S
O1452      C1459   1.280       .  A
O1453     Cu1456   2.008       .  S
O1453      C1458   1.277       .  A
O1454     Cu1456   2.008       .  S
O1454      C1457   1.277       .  A
Cu1455    Cu1456   2.374       .  S
C1457      C1563   1.468       .  S
C1458      C1539   1.468       .  S
C1459      C1463   1.483       .  S
C1461      C1492   1.482       .  S
C1461      N1462   1.362       .  A
C1461      N1466   1.361       .  A
N1462      C1463   1.363       .  A
C1463      N1464   1.363       .  A
N1464      C1465   1.363       .  A
C1465      C1477   1.482       .  S
C1465      N1466   1.361       .  A
O1467     Cu1475   2.027       .  S
O1467      C1477   1.280       .  A
O1468     Cu1475   2.024       .  S
O1468      C1478   1.280       .  A
O1469     Cu1475   2.007       .  S
O1469      C1479   1.277       .  A
O1470     Cu1475   2.007       .  S
O1470      C1480   1.277       .  A
O1471     Cu1476   2.008       .  S
O1471      C1480   1.277       .  A
O1472     Cu1476   2.008       .  S
O1472      C1479   1.277       .  A
O1473     Cu1476   2.024       .  S
O1473      C1478   1.279       .  A
O1474     Cu1476   2.026       .  S
O1474      C1477   1.280       .  A
Cu1475    Cu1476   2.374       .  S
C1479      C1635   1.467       .  S
C1480      C1611   1.468       .  S
O1481     Cu1489   2.024       .  S
O1481      C1491   1.279       .  A
O1482     Cu1489   2.026       .  S
O1482      C1492   1.280       .  A
O1483     Cu1489   2.009       .  S
O1483      C1493   1.277       .  A
O1484     Cu1489   2.009       .  S
O1484      C1494   1.277       .  A
O1485     Cu1490   2.007       .  S
O1485      C1494   1.277       .  A
O1486     Cu1490   2.007       .  S
O1486      C1493   1.277       .  A
O1487     Cu1490   2.027       .  S
O1487      C1492   1.280       .  A
O1488     Cu1490   2.024       .  S
O1488      C1491   1.280       .  A
Cu1489    Cu1490   2.374       .  S
C1493      C1515   1.468       .  S
C1494      C1587   1.468       .  S
N1495      C1499   1.346       .  A
N1495      N1496   1.320       .  A
N1495     Cu1503   2.074       .  S
N1496      C1497   1.341       .  A
N1496     Cu1502   2.052       .  S
C1497      C1498   1.378       .  A
C1497      H1500   1.082       .  S
C1498      C1677   1.459       .  S
C1498      C1499   1.385       .  A
C1499      H1501   1.082       .  S
Cu1502     N1505   2.051       .  S
Cu1503     N1513   2.075       .  S
Cu1504     N1506   2.075       .  S
Cu1504     N1512   2.076       .  S
N1505      C1509   1.341       .  A
N1505      N1506   1.320       .  A
N1506      C1507   1.346   1_565  A
C1507      C1508   1.385       .  A
C1508      C1720   1.459       .  S
C1508      C1509   1.378   1_545  A
C1509      H1511   1.082       .  S
N1512      C1516   1.345       .  A
N1512      N1513   1.323       .  A
N1513      C1514   1.345       .  A
C1514      C1515   1.382       .  A
C1514      H1517   1.082       .  S
C1515      C1516   1.383       .  A
C1516      H1518   1.082       .  S
N1519      C1523   1.346       .  A
N1519      N1520   1.320       .  A
N1519     Cu1527   2.075       .  S
N1520      C1521   1.341       .  A
N1520     Cu1526   2.052       .  S
C1521      C1522   1.378       .  A
C1521      H1524   1.082       .  S
C1522      C1692   1.459       .  S
C1522      C1523   1.385       .  A
Cu1526     N1529   2.052       .  S
Cu1527     N1537   2.076       .  S
Cu1528     N1530   2.075       .  S
Cu1528     N1536   2.076       .  S
N1529      C1533   1.341       .  A
N1529      N1530   1.320       .  A
N1530      C1531   1.346   1_565  A
C1531      C1532   1.385       .  A
C1532      C1721   1.459       .  S
C1532      C1533   1.378   1_545  A
C1533      H1535   1.082       .  S
N1536      C1540   1.345       .  A
N1536      N1537   1.323       .  A
N1537      C1538   1.345       .  A
C1538      C1539   1.383       .  A
C1538      H1541   1.082       .  S
C1539      C1540   1.383       .  A
C1540      H1542   1.082       .  S
N1543      C1547   1.346       .  A
N1543      N1544   1.320       .  A
N1543     Cu1551   2.075       .  S
N1544      C1545   1.341       .  A
N1544     Cu1550   2.052       .  S
C1545      C1546   1.378       .  A
C1545      H1548   1.082       .  S
C1546      C1665   1.459       .  S
C1546      C1547   1.385       .  A
Cu1550     N1553   2.052       .  S
Cu1551     N1561   2.076       .  S
Cu1552     N1554   2.075       .  S
Cu1552     N1560   2.076       .  S
N1553      C1557   1.341       .  A
N1553      N1554   1.320       .  A
N1554      C1555   1.346   1_565  A
C1555      C1556   1.385       .  A
C1556      C1706   1.459       .  S
C1556      C1557   1.378   1_545  A
C1557      H1559   1.082       .  S
N1560      C1564   1.345       .  A
N1560      N1561   1.323       .  A
N1561      C1562   1.345       .  A
C1562      C1563   1.383       .  A
C1562      H1565   1.082       .  S
C1563      C1564   1.383       .  A
C1564      H1566   1.082       .  S
N1567      C1571   1.346       .  A
N1567      N1568   1.320       .  A
N1567     Cu1575   2.074       .  S
N1568      C1569   1.341       .  A
N1568     Cu1574   2.052       .  S
C1569      C1570   1.378       .  A
C1569      H1572   1.082       .  S
C1570      C1652   1.459       .  S
C1570      C1571   1.385       .  A
C1571      H1573   1.082       .  S
Cu1574     N1577   2.051       .  S
Cu1575     N1585   2.075       .  S
Cu1576     N1578   2.075       .  S
Cu1576     N1584   2.076       .  S
N1577      C1581   1.341       .  A
N1577      N1578   1.320       .  A
N1578      C1579   1.346   1_565  A
C1579      C1580   1.385       .  A
C1580      C1707   1.459       .  S
C1580      C1581   1.378   1_545  A
C1581      H1583   1.082       .  S
N1584      C1588   1.345       .  A
N1584      N1585   1.323       .  A
N1585      C1586   1.345       .  A
C1586      C1587   1.382       .  A
C1586      H1589   1.082       .  S
C1587      C1588   1.383       .  A
C1588      H1590   1.082       .  S
N1591      C1595   1.346       .  A
N1591      N1592   1.320       .  A
N1591     Cu1599   2.074       .  S
N1592      C1593   1.341       .  A
N1592     Cu1598   2.052       .  S
C1593      C1594   1.378       .  A
C1593      H1596   1.082       .  S
C1594      C1680   1.459       .  S
C1594      C1595   1.385       .  A
C1595      H1597   1.082       .  S
Cu1598     N1601   2.051       .  S
Cu1599     N1609   2.075       .  S
Cu1600     N1602   2.075       .  S
Cu1600     N1608   2.076       .  S
N1601      C1605   1.341       .  A
N1601      N1602   1.320       .  A
N1602      C1603   1.346       .  A
C1603      C1604   1.385       .  A
C1604      C1693   1.459       .  S
C1604      C1605   1.378       .  A
C1605      H1607   1.082       .  S
N1608      C1612   1.345       .  A
N1608      N1609   1.323       .  A
N1609      C1610   1.345       .  A
C1610      C1611   1.382       .  A
C1610      H1613   1.082       .  S
C1611      C1612   1.383       .  A
C1612      H1614   1.082       .  S
N1615      C1619   1.346       .  A
N1615      N1616   1.320       .  A
N1615     Cu1623   2.074       .  S
N1616      C1617   1.341       .  A
N1616     Cu1622   2.052       .  S
C1617      C1618   1.378       .  A
C1617      H1620   1.082       .  S
C1618      C1649   1.459       .  S
C1618      C1619   1.385       .  A
C1619      H1621   1.082       .  S
Cu1622     N1625   2.051       .  S
Cu1623     N1633   2.075       .  S
Cu1624     N1626   2.075       .  S
Cu1624     N1632   2.076       .  S
N1625      C1629   1.341       .  A
N1625      N1626   1.320       .  A
N1626      C1627   1.346       .  A
C1627      C1628   1.385       .  A
C1628      C1664   1.459       .  S
C1628      C1629   1.378       .  A
C1629      H1631   1.082       .  S
N1632      C1636   1.345       .  A
N1632      N1633   1.323       .  A
N1633      C1634   1.345       .  A
C1634      C1635   1.382       .  A
C1634      H1637   1.082       .  S
C1635      C1636   1.383       .  A
C1636      H1638   1.082       .  S
O1639     Cu1647   2.006   1_556  S
O1639      C1649   1.275       .  A
O1640     Cu1647   2.007       .  S
O1640      C1650   1.278       .  A
O1641     Cu1647   2.006       .  S
O1641      C1651   1.278       .  A
O1642     Cu1647   2.006   1_556  S
O1642      C1652   1.275       .  A
O1643     Cu1648   2.006       .  S
O1643      C1652   1.278       .  A
O1644     Cu1648   2.006   1_554  S
O1644      C1651   1.275       .  A
O1645     Cu1648   2.006   1_554  S
O1645      C1650   1.275       .  A
O1646     Cu1648   2.006       .  S
O1646      C1649   1.278       .  A
Cu1647    Cu1648   2.381   1_554  S
C1650      C1798   1.459       .  S
C1651      C1822   1.459       .  S
O1653     Cu1661   2.006   1_554  S
O1654     Cu1661   2.006       .  S
O1654      C1664   1.278       .  A
O1655     Cu1661   2.006       .  S
O1655      C1665   1.278       .  A
O1656      C1666   1.275       .  A
O1657     Cu1662   2.006       .  S
O1657      C1666   1.278   1_655  A
O1658     Cu1662   2.006   1_556  S
O1659     Cu1662   2.006   1_556  S
O1660     Cu1662   2.006       .  S
O1660      C1663   1.278   1_655  A
C1663      C1808   1.459       .  S
C1666      C1774   1.459       .  S
O1667     Cu1675   2.006       .  S
O1667      C1677   1.275       .  A
O1668     Cu1675   2.006       .  S
O1668      C1678   1.278       .  A
O1669     Cu1675   2.007       .  S
O1669      C1679   1.278       .  A
O1670     Cu1675   2.006       .  S
O1670      C1680   1.275       .  A
O1671     Cu1676   2.006       .  S
O1671      C1680   1.278       .  A
O1672     Cu1676   2.006       .  S
O1672      C1679   1.275       .  A
O1673     Cu1676   2.006       .  S
O1673      C1678   1.275       .  A
O1674     Cu1676   2.006       .  S
O1674      C1677   1.278       .  A
Cu1675    Cu1676   2.381       .  S
C1678      C1894   1.459       .  S
C1679      C1846   1.459       .  S
O1681      C1691   1.275       .  A
O1682     Cu1689   2.006       .  S
O1682      C1692   1.278       .  A
O1683     Cu1689   2.006       .  S
O1683      C1693   1.278       .  A
O1684     Cu1689   2.006       .  S
O1685     Cu1690   2.006       .  S
O1685      C1694   1.278   1_655  A
O1686     Cu1690   2.006       .  S
O1687     Cu1690   2.007       .  S
O1688     Cu1690   2.006       .  S
O1688      C1691   1.278   1_655  A
C1691      C1870   1.459       .  S
C1694      C1856   1.459       .  S
O1695      C1705   1.275       .  A
O1696     Cu1703   2.006       .  S
O1696      C1706   1.278   1_565  A
O1697     Cu1703   2.006       .  S
O1697      C1707   1.278   1_565  A
O1698     Cu1703   2.006   1_554  S
O1699     Cu1704   2.006       .  S
O1699      C1708   1.278       .  A
O1700     Cu1704   2.006   1_556  S
O1701     Cu1704   2.006   1_556  S
O1702     Cu1704   2.006       .  S
O1702      C1705   1.278       .  A
C1705      C1784   1.459       .  S
C1708      C1832   1.459       .  S
O1709     Cu1717   2.006       .  S
O1710     Cu1717   2.006       .  S
O1710      C1720   1.278   1_565  A
O1711     Cu1717   2.006       .  S
O1711      C1721   1.278   1_565  A
O1712     Cu1717   2.006       .  S
O1713     Cu1718   2.006       .  S
O1713      C1722   1.278       .  A
O1714     Cu1718   2.006       .  S
O1715     Cu1718   2.006       .  S
O1716     Cu1718   2.006       .  S
O1716      C1719   1.278       .  A
C1719      C1904   1.459       .  S
C1722      C1880   1.459       .  S
O1723     Cu1731   2.008       .  S
O1723      C1733   1.277       .  A
O1724     Cu1731   2.008       .  S
O1724      C1734   1.277       .  A
O1725     Cu1731   2.029       .  S
O1725      C1735   1.280       .  A
O1726     Cu1731   2.026       .  S
O1726      C1736   1.280       .  A
O1727     Cu1732   2.026       .  S
O1727      C1736   1.280       .  A
O1728     Cu1732   2.029       .  S
O1728      C1735   1.280       .  A
O1729     Cu1732   2.008       .  S
O1729      C1734   1.277       .  A
O1730     Cu1732   2.008       .  S
O1730      C1733   1.277       .  A
Cu1731    Cu1732   2.374       .  S
C1733      C1791   1.468       .  S
C1734      C1887   1.468       .  S
C1735      C1739   1.483       .  S
C1736      C1915   1.482       .  S
C1737      C1753   1.482       .  S
C1737      N1738   1.362       .  A
C1737      N1742   1.361       .  A
N1738      C1739   1.363       .  A
C1739      N1740   1.363       .  A
N1740      C1741   1.363       .  A
C1741      C1767   1.482       .  S
C1741      N1742   1.361       .  A
O1743     Cu1751   2.026       .  S
O1743      C1753   1.280       .  A
O1744     Cu1751   2.024       .  S
O1744      C1754   1.279       .  A
O1745     Cu1751   2.009       .  S
O1745      C1755   1.277       .  A
O1746     Cu1751   2.009       .  S
O1746      C1756   1.277       .  A
O1747     Cu1752   2.007       .  S
O1747      C1756   1.277       .  A
O1748     Cu1752   2.007       .  S
O1748      C1755   1.277       .  A
O1749     Cu1752   2.024       .  S
O1749      C1754   1.280       .  A
O1750     Cu1752   2.027       .  S
O1750      C1753   1.280       .  A
Cu1751    Cu1752   2.374       .  S
C1754      C1917   1.480       .  S
C1755      C1911   1.468       .  S
C1756      C1839   1.468       .  S
O1757     Cu1765   2.027       .  S
O1757      C1767   1.280       .  A
O1758     Cu1765   2.024       .  S
O1758      C1768   1.280       .  A
O1759     Cu1765   2.007       .  S
O1759      C1769   1.277       .  A
O1760     Cu1765   2.007       .  S
O1760      C1770   1.277       .  A
O1761     Cu1766   2.009       .  S
O1761      C1770   1.277       .  A
O1762     Cu1766   2.009       .  S
O1762      C1769   1.277       .  A
O1763     Cu1766   2.024       .  S
O1763      C1768   1.279       .  A
O1764     Cu1766   2.026       .  S
O1764      C1767   1.280       .  A
Cu1765    Cu1766   2.374       .  S
C1768      C1919   1.480       .  S
C1769      C1863   1.468       .  S
C1770      C1815   1.468       .  S
N1771      C1775   1.346   1_655  A
N1771      N1772   1.320       .  A
N1771     Cu1779   2.075       .  S
N1772      C1773   1.341       .  A
N1772     Cu1778   2.052       .  S
C1773      C1774   1.378   1_655  A
C1773      H1776   1.082       .  S
C1774      C1775   1.385       .  A
Cu1778     N1781   2.052       .  S
Cu1779     N1789   2.076       .  S
Cu1780     N1782   2.075       .  S
Cu1780     N1788   2.076       .  S
N1781      C1785   1.341       .  A
N1781      N1782   1.320       .  A
N1782      C1783   1.346       .  A
C1783      C1784   1.385       .  A
C1784      C1785   1.378       .  A
C1785      H1787   1.082       .  S
N1788      C1792   1.345       .  A
N1788      N1789   1.323       .  A
N1789      C1790   1.345       .  A
C1790      C1791   1.382       .  A
C1790      H1793   1.082       .  S
C1791      C1792   1.382       .  A
C1792      H1794   1.082       .  S
N1795      C1799   1.346       .  A
N1795      N1796   1.320       .  A
N1795     Cu1803   2.074       .  S
N1796      C1797   1.341       .  A
N1796     Cu1802   2.051       .  S
C1797      C1798   1.378       .  A
C1797      H1800   1.082       .  S
C1798      C1799   1.385       .  A
C1799      H1801   1.082       .  S
Cu1802     N1805   2.051       .  S
Cu1803     N1813   2.075       .  S
Cu1804     N1806   2.075       .  S
Cu1804     N1812   2.077       .  S
N1805      C1809   1.341       .  A
N1805      N1806   1.320       .  A
N1806      C1807   1.346   1_655  A
C1807      C1808   1.385       .  A
C1808      C1809   1.378   1_455  A
C1809      H1811   1.082       .  S
N1812      C1816   1.345       .  A
N1812      N1813   1.323       .  A
N1813      C1814   1.345       .  A
C1814      C1815   1.382       .  A
C1814      H1817   1.082       .  S
C1815      C1816   1.383       .  A
C1816      H1818   1.082       .  S
N1819      C1823   1.346       .  A
N1819      N1820   1.320       .  A
N1819     Cu1827   2.074       .  S
N1820      C1821   1.341       .  A
N1820     Cu1826   2.051       .  S
C1821      C1822   1.378       .  A
C1821      H1824   1.082       .  S
C1822      C1823   1.385       .  A
C1823      H1825   1.082       .  S
Cu1826     N1829   2.051       .  S
Cu1827     N1837   2.075       .  S
Cu1828     N1830   2.075       .  S
Cu1828     N1836   2.077       .  S
N1829      C1833   1.341       .  A
N1829      N1830   1.320       .  A
N1830      C1831   1.346       .  A
C1831      C1832   1.385       .  A
C1832      C1833   1.378       .  A
C1833      H1835   1.082       .  S
N1836      C1840   1.345       .  A
N1836      N1837   1.324       .  A
N1837      C1838   1.345       .  A
C1838      C1839   1.382       .  A
C1838      H1841   1.082       .  S
C1839      C1840   1.383       .  A
C1840      H1842   1.082       .  S
N1843      C1847   1.346       .  A
N1843      N1844   1.320       .  A
N1843     Cu1851   2.074       .  S
N1844      C1845   1.341       .  A
N1844     Cu1850   2.051       .  S
C1845      C1846   1.378       .  A
C1845      H1848   1.082       .  S
C1846      C1847   1.385       .  A
C1847      H1849   1.082       .  S
Cu1850     N1853   2.051       .  S
Cu1851     N1861   2.075       .  S
Cu1852     N1854   2.076       .  S
Cu1852     N1860   2.077       .  S
N1853      C1857   1.341       .  A
N1853      N1854   1.320       .  A
N1854      C1855   1.346   1_655  A
C1855      C1856   1.385       .  A
C1856      C1857   1.378   1_455  A
C1857      H1859   1.082       .  S
N1860      C1864   1.345       .  A
N1860      N1861   1.324       .  A
N1861      C1862   1.345       .  A
C1862      C1863   1.382       .  A
C1862      H1865   1.082       .  S
C1863      C1864   1.383       .  A
C1864      H1866   1.082       .  S
N1867      C1871   1.346   1_655  A
N1867      N1868   1.320       .  A
N1867     Cu1875   2.075       .  S
N1868      C1869   1.341       .  A
N1868     Cu1874   2.052       .  S
C1869      C1870   1.378   1_655  A
C1869      H1872   1.082       .  S
C1870      C1871   1.385       .  A
Cu1874     N1877   2.052       .  S
Cu1875     N1885   2.076       .  S
Cu1876     N1878   2.075       .  S
Cu1876     N1884   2.076       .  S
N1877      C1881   1.341       .  A
N1877      N1878   1.320       .  A
N1878      C1879   1.346       .  A
C1879      C1880   1.385       .  A
C1880      C1881   1.378       .  A
C1881      H1883   1.082       .  S
N1884      C1888   1.345       .  A
N1884      N1885   1.323       .  A
N1885      C1886   1.345       .  A
C1886      C1887   1.382       .  A
C1886      H1889   1.082       .  S
C1887      C1888   1.383       .  A
C1888      H1890   1.082       .  S
N1891      C1895   1.346       .  A
N1891      N1892   1.320       .  A
N1891     Cu1899   2.074       .  S
N1892      C1893   1.341       .  A
N1892     Cu1898   2.051       .  S
C1893      C1894   1.378       .  A
C1893      H1896   1.082       .  S
C1894      C1895   1.385       .  A
C1895      H1897   1.082       .  S
Cu1898     N1901   2.051       .  S
Cu1899     N1909   2.075       .  S
Cu1900     N1902   2.076       .  S
Cu1900     N1908   2.077       .  S
N1901      C1905   1.341       .  A
N1901      N1902   1.320       .  A
N1902      C1903   1.346       .  A
C1903      C1904   1.385       .  A
C1904      C1905   1.378       .  A
C1905      H1907   1.082       .  S
N1908      C1912   1.345       .  A
N1908      N1909   1.324       .  A
N1909      C1910   1.345       .  A
C1910      C1911   1.382       .  A
C1910      H1913   1.082       .  S
C1911      C1912   1.383       .  A
C1912      H1914   1.082       .  S
N1916      C1917   1.362       .  A
C1919      N1920   1.362       .  A
