geometry optimzed in LAMMPS
_audit_creation_date              2020-12-01 
_audit_creation_method            'lammps2cif' 
_symmetry_space_group_name_H-M    'P1' 
_symmetry_Int_Tables_number       1 
_symmetry_cell_setting            triclinic 
loop_ 
_symmetry_equiv_pos_as_xyz 
  x,y,z 
_cell_length_a                    37.52924391 
_cell_length_b                    37.468711637049644 
_cell_length_c                    32.6069535995677 
_cell_angle_alpha                 84.70389135403973 
_cell_angle_beta                  86.04470278044026 
_cell_angle_gamma                 90.6326128556552 
loop_ 
_atom_site_label 
_atom_site_type_symbol 
_atom_site_fract_x 
_atom_site_fract_y 
_atom_site_fract_z 
_atom_site_charge 
N1          N  0.12071821  0.25735418  0.24533716    -0.02900
C2          C  0.10235948  0.25039068  0.28290595    -0.00300
C3          C  0.06695001  0.24335089  0.27730027    -0.23200
C4          C  0.06569260  0.23788712  0.23657051    -0.23400
C5          C  0.10131366  0.23709565  0.22178214    -0.00400
H6          H  0.04651092  0.23479834  0.30131767     0.13300
H7          H  0.04408399  0.22312150  0.22515134     0.13400
N8          N  0.14150274  0.24727338  0.60011733    -0.02900
C9          C  0.15254775  0.24454987  0.55983864    -0.00300
C10         C  0.16278349  0.27761020  0.53989015    -0.23200
C11         C  0.15741425  0.30198534  0.56780413    -0.23400
C12         C  0.14462753  0.28315602  0.60428298    -0.00400
H13         H  0.17038548  0.28368177  0.50731843     0.13300
H14         H  0.16244439  0.33059448  0.56215168     0.13400
N15         N  0.01372143  0.35532229  0.74230989    -0.02900
C16         C  0.00704045  0.34985601  0.78431240    -0.00300
C17         C  0.01620524  0.31588934  0.79938785    -0.23200
C18         C  0.03616955  0.30282217  0.76817484    -0.23400
C19         C  0.03940029  0.32996499  0.73601345    -0.00400
H20         H  0.01571353  0.30544167  0.83152660     0.13300
H21         H  0.05441329  0.28103174  0.77339962     0.13400
N22         N  0.01751787  0.35015557  0.10077842    -0.02900
C23         C  0.01587911  0.34432368  0.05999010    -0.00300
C24         C  0.04495913  0.32511042  0.04681716    -0.23200
C25         C  0.06590134  0.31969249  0.07912099    -0.23400
C26         C  0.04942383  0.33573572  0.11183383    -0.00400
H27         H  0.05203702  0.31886384  0.01554407     0.13300
H28         H  0.09212267  0.30789903  0.07763526     0.13400
O29         O  0.14980342  0.32458684  0.78155067    -0.80400
O30         O  0.10973962  0.40413499  0.62452596    -0.65000
O31         O  0.16397416  0.35145360  0.70115182    -1.11600
C32         C  0.18041866  0.46499926  0.75165203     1.06500
O33         O  0.15404659  0.44441343  0.61339020    -0.78300
O34         O  0.20906845  0.45028612  0.66187216    -0.65800
Ni35       Ni  0.14996513  0.30698424  0.72792030     1.34900
C36         C  0.23004981  0.42447638  0.66990477     0.85300
O37         O  0.12725033  0.33416728  0.63569569    -0.78800
O38         O  0.15058814  0.28851874  0.67512015    -0.89100
C39         C  0.12968624  0.42538634  0.60013191     0.84800
O40         O  0.09937002  0.31228211  0.72771918    -0.67300
O41         O  0.16639265  0.47839827  0.71940788    -0.86600
C42         C  0.07756712  0.33705300  0.71828363     0.85700
C43         C  0.13926241  0.30225301  0.64125456     1.07200
H44         H  0.12277688  0.42025663  0.71157928     0.39000
O45         O  0.14425065  0.41544745  0.69503430    -1.09200
O46         O  0.22041497  0.39773443  0.69592308    -0.65900
Ni47       Ni  0.17499398  0.39045810  0.73114834     1.26300
O48         O  0.08819854  0.36611533  0.69708205    -0.66100
O49         O  0.18612955  0.43152957  0.75906906    -0.78400
C50         C  0.17548902  0.34083907  0.79609687     0.85100
O51         O  0.19744779  0.36068396  0.77197869    -0.65600
Ni52       Ni  0.15943277  0.45993934  0.66766538     1.27400
Ni53       Ni  0.13419325  0.37581204  0.66458258     1.26100
H54         H  0.18539474  0.34648308  0.68459493     0.39600
O55         O  0.20443979  0.37892544  0.10876252    -0.80400
O56         O  0.12968043  0.41905780  0.27079192    -0.65000
O57         O  0.18488186  0.36994205  0.19329779    -1.11600
C58         C  0.07077983  0.34297371  0.14758116     1.06500
O59         O  0.09482991  0.37087661  0.28613400    -0.78300
O60         O  0.09285045  0.31363280  0.24111910    -0.65800
Ni61       Ni  0.22378709  0.39057858  0.15962433     1.34900
C62         C  0.11995642  0.29544144  0.22999332     0.85300
O63         O  0.20060583  0.41225955  0.25539958    -0.78800
O64         O  0.24550198  0.40294666  0.20816541    -0.89100
C65         C  0.11167329  0.39782138  0.29730341     0.84800
O66         O  0.20581111  0.43783939  0.15085614    -0.67300
O67         O  0.05681539  0.35405285  0.18099684    -0.86600
C68         C  0.18038182  0.45619132  0.16557128     0.85700
C69         C  0.23381467  0.41187872  0.24340074     1.07200
H70         H  0.11080748  0.40216397  0.18587835     0.39000
O71         O  0.11889943  0.38193563  0.20308661    -1.09200
O72         O  0.14417547  0.30888123  0.20370963    -0.65900
Ni73       Ni  0.14515342  0.35325147  0.16740558     1.26300
O74         O  0.15930193  0.44351283  0.19595447    -0.66100
O75         O  0.10423999  0.33814371  0.14167873    -0.78400
C76         C  0.18934013  0.34991932  0.10095825     0.85100
O77         O  0.17374790  0.32910967  0.12936688    -0.65600
Ni78       Ni  0.07735702  0.36241791  0.23293947     1.27400
Ni79       Ni  0.15870844  0.39757431  0.23032250     1.26100
H80         H  0.19442949  0.34996499  0.20973689     0.39600
N81         N  0.28839722  0.40211337  0.28371426    -0.02900
C82         C  0.29454580  0.41088747  0.32238453    -0.00300
C83         C  0.27403408  0.44012112  0.33154001    -0.23200
C84         C  0.25112614  0.44608241  0.30095953    -0.23400
C85         C  0.25972549  0.42201138  0.27263785    -0.00400
H86         H  0.27067679  0.45073954  0.36131835     0.13300
H87         H  0.22784396  0.46282867  0.30194359     0.13400
N88         N  0.29066771  0.40171273  0.63733901    -0.02900
C89         C  0.29499032  0.40281380  0.59493595    -0.00300
C90         C  0.27886767  0.43177724  0.57562672    -0.23200
C91         C  0.26136979  0.44819600  0.60550368    -0.23400
C92         C  0.26460969  0.42719556  0.64249563    -0.00400
H93         H  0.27876619  0.43929890  0.54274262     0.13300
H94         H  0.24268483  0.46947330  0.59910211     0.13400
O95         O  0.40668904  0.43454551  0.60040123    -0.80400
O96         O  0.34868579  0.35070133  0.75931321    -0.65000
O97         O  0.40750355  0.41089768  0.68328133    -1.11600
C98         C  0.44660406  0.29812766  0.63944585     1.06500
O99         O  0.39697516  0.32011749  0.77613986    -0.78300
O100        O  0.46182216  0.32158518  0.73227094    -0.65800
Ni101      Ni  0.39027521  0.45162806  0.65254141     1.34900
C102        C  0.48045199  0.34996888  0.72048807     0.85300
O103        O  0.35504815  0.42251238  0.74457450    -0.78800
O104        O  0.37343900  0.47142875  0.70307598    -0.89100
C105        C  0.36671571  0.33359592  0.78608357     0.84800
O106        O  0.34276835  0.43442117  0.64514966    -0.67300
O107        O  0.43243300  0.28345966  0.67376552    -0.86600
C108        C  0.32428002  0.40603929  0.65680830     0.85700
C109        C  0.35770833  0.45663664  0.73643496     1.07200
H110        H  0.38013232  0.33412615  0.67630996     0.39000
O111        O  0.39745740  0.34365673  0.69319472    -1.09200
O112        O  0.46994913  0.37340739  0.69286439    -0.65900
Ni113      Ni  0.42953794  0.37239300  0.65687125     1.26300
O114        O  0.33523075  0.38184561  0.68326328    -0.66100
O115        O  0.45002455  0.33216122  0.63151854    -0.78400
C116        C  0.43599970  0.41972476  0.58993462     0.85100
O117        O  0.45523600  0.40392108  0.61640631    -0.65600
Ni118      Ni  0.41484023  0.30327950  0.72417438     1.27400
Ni119      Ni  0.37538676  0.38219588  0.71947870     1.26100
H120        H  0.42480530  0.42029736  0.70025106     0.39600
O121        O  0.45744265  0.36973303  0.27399987    -0.80400
O122        O  0.39408157  0.35109865  0.10200870    -0.65000
O123        O  0.43340487  0.38883286  0.19433158    -1.11600
C124        C  0.31620565  0.39311263  0.25305921     1.06500
O125        O  0.34080117  0.37673688  0.10616489    -0.78300
O126        O  0.35778447  0.43201566  0.15006486    -0.65800
Ni127      Ni  0.47079303  0.36149756  0.21796159     1.34900
C128        C  0.36495418  0.45122965  0.17868791     0.85300
O129        O  0.45962936  0.37395408  0.11431409    -0.78800
O130        O  0.49198832  0.35167635  0.16458525    -0.89100
C131        C  0.36511402  0.36043216  0.08687313     0.84800
O132        O  0.44062505  0.31938830  0.22514308    -0.67300
O133        O  0.31141562  0.40131601  0.21511641    -0.86600
C134        C  0.43541424  0.30161234  0.19484971     0.85700
C135        C  0.48879370  0.36093422  0.12653599     1.07200
H136        H  0.36457192  0.33958496  0.19132929     0.39000
O137        O  0.37071995  0.36444707  0.18316838    -1.09200
O138        O  0.37723725  0.43656608  0.21175745    -0.65900
Ni139      Ni  0.38975845  0.38610290  0.22878263     1.26300
O140        O  0.42602527  0.31789728  0.16146365    -0.66100
O141        O  0.34585982  0.38068359  0.26378563    -0.78400
C142        C  0.43737621  0.39197658  0.29084817     0.85100
O143        O  0.41121814  0.40561516  0.27298589    -0.65600
Ni144      Ni  0.33025950  0.38839690  0.16177069     1.27400
Ni145      Ni  0.41457599  0.36865367  0.14783077     1.26100
H146        H  0.44111961  0.41342573  0.18697145     0.39600
N147        N  0.44075978  0.23774799  0.22462873    -0.02900
C148        C  0.46177294  0.24324389  0.25639468    -0.00300
C149        C  0.49208785  0.26218029  0.23965957    -0.23200
C150        C  0.48773397  0.27037177  0.19861855    -0.23400
C151        C  0.45158441  0.26495696  0.19513540    -0.00400
H152        H  0.51289792  0.27407317  0.25511688     0.13300
H153        H  0.50499685  0.28928427  0.17946206     0.13400
N154        N  0.44418570  0.24618063  0.59297991    -0.02900
C155        C  0.45989084  0.24262778  0.55462578    -0.00300
C156        C  0.48581626  0.26891361  0.54410268    -0.23200
C157        C  0.48617250  0.28969139  0.57642232    -0.23400
C158        C  0.46008726  0.27597547  0.60592095    -0.00400
H159        H  0.50053408  0.27442195  0.51440048     0.13300
H160        H  0.50157613  0.31426056  0.57670996     0.13400
N161        N  0.35650232  0.01157343  0.77651665    -0.02900
C162        C  0.34018531  0.01317957  0.81549732    -0.00300
C163        C  0.31221848  0.48326646  0.82855812    -0.23200
C164        C  0.31568429  0.46213045  0.79712036    -0.23400
C165        C  0.34065902  0.47848193  0.76834340    -0.00400
H166        H  0.29692063  0.47598290  0.85754024     0.13300
H167        H  0.30313455  0.43602481  0.79680176     0.13400
N168        N  0.36864502  0.01850237  0.14962683    -0.02900
C169        C  0.34954642  0.01912222  0.11500841    -0.00300
C170        C  0.31214889  0.50064567  0.12817654    -0.23200
C171        C  0.31351863  0.48495770  0.16754153    -0.23400
C172        C  0.34899019  0.48828167  0.17702078    -0.00400
H173        H  0.29231105  0.49551243  0.10688173     0.13300
H174        H  0.29489105  0.46392620  0.18041056     0.13400
O175        O  0.40641810  0.17999463  0.76164272    -0.80400
O176        O  0.45249215  0.11614940  0.60627090    -0.65000
O177        O  0.39235487  0.15836004  0.68605467    -1.11600
C178        C  0.36848529  0.04156948  0.74675260     1.06500
O179        O  0.41244449  0.07253208  0.60153217    -0.78300
O180        O  0.35195281  0.08818270  0.64177481    -0.65800
Ni181      Ni  0.40629200  0.20127178  0.70610107     1.34900
C182        C  0.32713965  0.09730779  0.66677915     0.85300
O183        O  0.43549600  0.18471992  0.61442564    -0.78800
O184        O  0.40756462  0.22497274  0.65128606    -0.89100
C185        C  0.43832863  0.09287332  0.58633522     0.84800
O186        O  0.45716069  0.19611952  0.70050082    -0.67300
O187        O  0.36744478  0.03742363  0.70828077    -0.86600
C188        C  0.47988044  0.17301841  0.68951930     0.85700
C189        C  0.42718481  0.21719776  0.62003822     1.07200
H190        H  0.43416004  0.08541750  0.69296434     0.39000
O191        O  0.41292450  0.09486483  0.68111637    -1.09200
O192        O  0.33524856  0.10757336  0.70178733    -0.65900
Ni193      Ni  0.38369348  0.11595809  0.72319092     1.26300
O194        O  0.46942969  0.14473613  0.67436695    -0.66100
O195        O  0.37745212  0.07167056  0.75872503    -0.78400
C196        C  0.38125245  0.16313452  0.78342603     0.85100
O197        O  0.36141282  0.14114448  0.76709375    -0.65600
Ni198      Ni  0.39065252  0.05805771  0.65589018     1.27400
Ni199      Ni  0.42464748  0.13890688  0.64688350     1.26100
H200        H  0.37064304  0.16348599  0.67254151     0.42800
O201        O  0.35050252  0.13636462  0.11006082    -0.80400
O202        O  0.42451145  0.07350843  0.26412965    -0.65000
O203        O  0.37543928  0.13676012  0.18928042    -1.11600
C204        C  0.49279399  0.15603684  0.12372627     1.06500
O205        O  0.46213470  0.11859926  0.26952477    -0.78300
O206        O  0.46572788  0.18048188  0.22404979    -0.65800
Ni207      Ni  0.33289187  0.12375407  0.16672324     1.34900
C208        C  0.44265137  0.20190439  0.20966815     0.85300
O209        O  0.35379801  0.08816993  0.26103372    -0.78800
O210        O  0.31154417  0.11065019  0.22150464    -0.89100
C211        C  0.44667027  0.08949311  0.28449402     0.84800
O212        O  0.34461830  0.07509867  0.15876438    -0.67300
O213        O  0.50203440  0.14804332  0.16026326    -0.86600
C214        C  0.36909532  0.05306967  0.16800352     0.85700
C215        C  0.32086096  0.09432175  0.25512307     1.07200
H216        H  0.44679881  0.09703591  0.17596813     0.39000
O217        O  0.43919801  0.11709621  0.19082601    -1.09200
O218        O  0.42315111  0.19344554  0.18116068    -0.65900
Ni219      Ni  0.41689266  0.14965479  0.15277807     1.26300
O220        O  0.39211777  0.06028700  0.19362301    -0.66100
O221        O  0.45991033  0.15915712  0.11611559    -0.78400
C222        C  0.37011374  0.16228780  0.09322582     0.85100
O223        O  0.39153469  0.17850174  0.11372975    -0.65600
Ni224      Ni  0.48032764  0.13311317  0.21431024     1.27400
Ni225      Ni  0.39756536  0.10223375  0.22601745     1.26100
H226        H  0.36951644  0.15689116  0.20481583     0.39600
N227        N  0.29188345  0.07940704  0.28436529    -0.02900
C228        C  0.29301887  0.05783302  0.32103498    -0.00300
C229        C  0.26303301  0.03521640  0.32620492    -0.23200
C230        C  0.24211294  0.04390773  0.29478618    -0.23400
C231        C  0.25954194  0.07118674  0.27024833    -0.00400
H232        H  0.25411215  0.01783873  0.35342959     0.13300
H233        H  0.21522110  0.03390652  0.29235979     0.13400
N234        N  0.28989282  0.09098939  0.65619983    -0.02900
C235        C  0.28845734  0.06815498  0.62573065    -0.00300
C236        C  0.27971293  0.03397371  0.64273689    -0.23200
C237        C  0.26846505  0.03735538  0.68297913    -0.23400
C238        C  0.26608235  0.07418526  0.68612007    -0.00400
H239        H  0.27872336  0.01002673  0.62682204     0.13300
H240        H  0.25320342  0.01654662  0.70206676     0.13400
N241        N  0.18148597  0.01679728  0.79523197    -0.02900
C242        C  0.19475557  0.02106486  0.83239931    -0.00300
C243        C  0.21441555  0.49982007  0.84001923    -0.23200
C244        C  0.21724715  0.47802243  0.80887930    -0.23400
C245        C  0.19152904  0.48866112  0.78241134    -0.00400
H246        H  0.22726160  0.49502477  0.86871982     0.13300
H247        H  0.23379234  0.45458823  0.80790539     0.13400
N248        N  0.17663142  0.49267267  0.14637234    -0.02900
C249        C  0.18621698  0.49453595  0.10516820    -0.00300
C250        C  0.22928844  0.01144891  0.10299248    -0.23200
C251        C  0.23654518  0.02307219  0.14000596    -0.23400
C252        C  0.20486975  0.01866014  0.16479389    -0.00400
H253        H  0.24465394  0.01730081  0.07378554     0.13300
H254        H  0.25735590  0.04272164  0.14300887     0.13400
N255        N  0.03878232  0.16687453  0.73308087    -0.02900
C256        C  0.03288205  0.18310261  0.76893409    -0.00300
C257        C  0.02157419  0.21750792  0.76067853    -0.23200
C258        C  0.52182657  0.21902303  0.69957319    -0.23400
C259        C  0.01693584  0.18676044  0.70759794    -0.00400
H260        H  0.51540962  0.23951896  0.76015839     0.13300
H261        H  0.50869954  0.24040685  0.68199498     0.13400
N262        N  0.01488588  0.16387034  0.10073139    -0.02900
C263        C  0.00861683  0.18253016  0.06386413    -0.00300
C264        C  0.03571951  0.20784780  0.05333265    -0.23200
C265        C  0.06092284  0.20210142  0.08122667    -0.23400
C266        C  0.04859129  0.17391994  0.10903625    -0.00400
H267        H  0.04009617  0.22426120  0.02423855     0.13300
H268        H  0.08695344  0.21515990  0.07922429     0.13400
O269        O  0.15559451  0.07519597  0.62371875    -0.80400
O270        O  0.19813156  0.14809803  0.77236494    -0.65000
O271        O  0.14018711  0.10216757  0.70067266    -1.11600
C272        C  0.13497602  0.21776253  0.63223642     1.06500
O273        O  0.16093450  0.19417310  0.77554133    -0.78300
O274        O  0.09943940  0.18130335  0.74021685    -0.65800
Ni275      Ni  0.15273199  0.05772235  0.68171244     1.34900
C276        C  0.07727745  0.16622704  0.71912313     0.85300
O277        O  0.17732381  0.07830216  0.77152222    -0.78800
O278        O  0.15026801  0.03710277  0.73817618    -0.89100
C279        C  0.18637871  0.17537285  0.78930565     0.84800
O280        O  0.20382047  0.06206553  0.68208098    -0.67300
O281        O  0.12601604  0.22454007  0.66916502    -0.86600
C282        C  0.22688334  0.08482519  0.69138189     0.85700
C283        C  0.16800678  0.04561958  0.76788999     1.07200
H284        H  0.18747587  0.17311813  0.68617525     0.39000
O285        O  0.16467502  0.16545881  0.69990622    -1.09200
O286        O  0.08833389  0.15370007  0.68508485    -0.65900
Ni287      Ni  0.13760739  0.14316157  0.66167202     1.26300
O288        O  0.21708561  0.11375327  0.70649722    -0.66100
O289        O  0.13967457  0.18562731  0.62343385    -0.78400
C290        C  0.13297930  0.09407473  0.60424152     0.85100
O291        O  0.11526706  0.11767232  0.62203155    -0.65600
Ni292      Ni  0.14349958  0.20598283  0.72180159     1.27400
Ni293      Ni  0.17112858  0.12295396  0.73641388     1.26100
H294        H  0.11714362  0.09847567  0.71569849     0.39600
O295        O  0.09727067  0.11831561  0.27994006    -0.80400
O296        O  0.17304747  0.18369020  0.11559303    -0.65000
O297        O  0.12678214  0.11648640  0.19742505    -1.11600
C298        C  0.23890275  0.09332982  0.24093217     1.06500
O299        O  0.21427876  0.14371305  0.10021108    -0.78300
O300        O  0.19759182  0.08049531  0.14402653    -0.65800
Ni301      Ni  0.08156008  0.12552715  0.22383797     1.34900
C302        C  0.19065591  0.05522017  0.17220876     0.85300
O303        O  0.10560938  0.16484899  0.13227115    -0.78800
O304        O  0.06145805  0.13485441  0.17040342    -0.89100
C305        C  0.19460289  0.17020482  0.08972454     0.84800
O306        O  0.08896421  0.17539700  0.22493666    -0.67300
O307        O  0.24687680  0.09470009  0.20186317    -0.86600
C308        C  0.11181211  0.19994953  0.21189017     0.85700
C309        C  0.07278278  0.15634973  0.13933086     1.07200
H310        H  0.20032189  0.16160629  0.19557114     0.39000
O311        O  0.19089150  0.14069661  0.18451435    -1.09200
O312        O  0.17834713  0.06261352  0.20769947    -0.65900
Ni313      Ni  0.16777468  0.10965184  0.22833002     1.26300
O314        O  0.14033846  0.19350432  0.19021121    -0.66100
O315        O  0.21005083  0.10553917  0.25627479    -0.78400
C316        C  0.11990240  0.09696649  0.29581297     0.85100
O317        O  0.14312699  0.08216493  0.27351732    -0.65600
Ni318      Ni  0.22800384  0.11999272  0.15250235     1.27400
Ni319      Ni  0.14847671  0.15245522  0.15769547     1.26100
H320        H  0.12343981  0.09534153  0.18313223     0.39600
C321        C  0.15060005  0.10642125  0.40301331    -0.21900
C322        C  0.12739975  0.08249801  0.42780978     0.10000
C323        C  0.10227047  0.06222596  0.40880848     0.10400
C324        C  0.09972494  0.06781465  0.36570162    -0.16800
C325        C  0.12235539  0.09254454  0.34114561    -0.27300
C326        C  0.14850876  0.11168795  0.36007196     0.18800
C327        C  0.12786142  0.08199152  0.47360948     0.12700
C328        C  0.07916591  0.03376383  0.43377820    -0.11600
H329        H  0.08036611  0.05250212  0.35105396     0.13000
C330        C  0.17388013  0.13882196  0.33619517    -0.22400
H331        H  0.16964879  0.12218613  0.41749683     0.08700
C332        C  0.15741706  0.06965431  0.49510299     0.05000
C333        C  0.15765478  0.07312887  0.53765670    -0.19700
C334        C  0.12965688  0.08975437  0.55943578    -0.12000
C335        C  0.09985185  0.10173629  0.53774217     0.13700
C336        C  0.09913081  0.09699775  0.49550894    -0.22400
C337        C  0.18864899  0.05249189  0.47343295    -0.05500
H338        H  0.18048985  0.06351430  0.55373734     0.15200
C339        C  0.06868712  0.11971606  0.55840303    -0.15600
H340        H  0.07630163  0.10608252  0.47911245     0.09600
H341        H  0.20179097  0.12984060  0.33892832     0.07400
H342        H  0.17100901  0.16509346  0.34903951     0.08600
H343        H  0.16891779  0.14321787  0.30305012     0.07700
H344        H  0.06228858  0.04557686  0.45802742     0.02500
H345        H  0.09626927  0.01332858  0.44903921     0.03000
H346        H  0.06135184  0.02005153  0.41413153     0.06500
H347        H  0.20881767  0.04309223  0.49520180     0.05500
H348        H  0.20217176  0.07196081  0.44953310    -0.00300
H349        H  0.17917704  0.02902553  0.45865031     0.01200
H350        H  0.04673045  0.12432919  0.53758115     0.04900
H351        H  0.07731718  0.14613487  0.56739665     0.06800
H352        H  0.05790402  0.10271127  0.58618994     0.07700
C353        C  0.20244372  0.22382867  0.88364054    -0.21900
C354        C  0.20323822  0.19431650  0.91333120     0.10000
C355        C  0.20660553  0.15970950  0.89996214     0.10400
C356        C  0.20371583  0.15440334  0.85856028    -0.16800
C357        C  0.19909007  0.18327642  0.82943356    -0.27300
C358        C  0.20165354  0.21860585  0.84136217     0.18800
C359        C  0.19807072  0.19839509  0.95830619     0.12700
C360        C  0.21183200  0.12736098  0.92896734    -0.11600
H361        H  0.20327482  0.12726277  0.84948865     0.13000
C362        C  0.20566514  0.25034551  0.80942205    -0.22400
H363        H  0.20191952  0.25066068  0.89347659     0.08700
C364        C  0.22672461  0.20770634  0.98117144     0.05000
C365        C  0.22436447  0.19987578  0.02444103    -0.19700
C366        C  0.19408379  0.18249402  0.04520551    -0.12000
C367        C  0.16531790  0.17326536  0.02197622     0.13700
C368        C  0.16697024  0.18302579  0.97933065    -0.22400
C369        C  0.26044344  0.22394166  0.95953244    -0.05500
H370        H  0.24687282  0.20574071  0.04192738     0.15200
C371        C  0.13441429  0.14939216  0.03978094    -0.15600
H372        H  0.14548740  0.17457945  0.96157502     0.09600
H373        H  0.21023256  0.27545019  0.82392193     0.07400
H374        H  0.18171319  0.25353451  0.79150104     0.08600
H375        H  0.22920116  0.24659501  0.78780334     0.07700
H376        H  0.18723997  0.11049377  0.93079194     0.02500
H377        H  0.21741742  0.13344982  0.96052696     0.03000
H378        H  0.23512122  0.11268353  0.91666377     0.06500
H379        H  0.28032662  0.22877014  0.98191414     0.05500
H380        H  0.25453097  0.24986308  0.94223754    -0.00300
H381        H  0.27229750  0.20567823  0.93766780     0.01200
H382        H  0.10902481  0.16383995  0.03648769     0.04900
H383        H  0.13666833  0.13972015  0.07251425     0.06800
H384        H  0.13344976  0.12522406  0.02250846     0.07700
C385        C  0.04370644  0.17920550  0.88363774    -0.21900
C386        C  0.01842022  0.15257166  0.89874234     0.10000
C387        C  0.00410032  0.13074464  0.87033668     0.10400
C388        C  0.01364921  0.13793755  0.82758306    -0.16800
C389        C  0.03603030  0.16721325  0.81232344    -0.27300
C390        C  0.05252642  0.18695482  0.84121794     0.18800
C391        C  0.00530762  0.15221593  0.94331675     0.12700
C392        C  0.97714870  0.10120209  0.88347901    -0.11600
H393        H  0.00054468  0.12288672  0.80588494     0.13000
C394        C  0.07841319  0.21767561  0.82863553    -0.22400
H395        H  0.05529061  0.19563134  0.90518757     0.08700
C396        C  0.01742499  0.12750972  0.97455932     0.05000
C397        C  0.01177816  0.13439327  0.01641958    -0.19700
C398        C  0.99518419  0.16594059  0.02774771    -0.12000
C399        C  0.48281732  0.18895636  0.98904354     0.13700
C400        C  0.98523915  0.18149266  0.95516945    -0.22400
C401        C  0.03938547  0.09587761  0.96375413    -0.05500
H402        H  0.02446076  0.11748394  0.03975569     0.15200
C403        C  0.46186772  0.22019134  0.00318004    -0.15600
H404        H  0.47479856  0.20327662  0.92483651     0.09600
H405        H  0.10395682  0.21220630  0.84312828     0.07400
H406        H  0.06707197  0.24270062  0.83941800     0.08600
H407        H  0.08463689  0.22210927  0.79492493     0.07700
H408        H  0.95172001  0.10723369  0.86894099     0.02500
H409        H  0.97137322  0.09740906  0.91728950     0.03000
H410        H  0.98765243  0.07561714  0.87340163     0.06500
H411        H  0.04761779  0.08000046  0.99184533     0.05500
H412        H  0.06386164  0.10525430  0.94454340    -0.00300
H413        H  0.02373514  0.07780355  0.94649830     0.01200
H414        H  0.44815367  0.23448314  0.97752027     0.04900
H415        H  0.47981117  0.23970088  0.01554647     0.06800
H416        H  0.44121334  0.21035315  0.02773831     0.07700
C417        C  0.11927856  0.50124717  0.92231363    -0.21900
C418        C  0.15266366  0.00819582  0.95507476     0.10000
C419        C  0.18061182  0.03332298  0.94332704     0.10400
C420        C  0.18982204  0.04262190  0.90125384    -0.16800
C421        C  0.17241004  0.02656797  0.87067245    -0.27300
C422        C  0.13046778  0.50957638  0.88035058     0.18800
C423        C  0.13642217  0.49243233  0.99510748     0.12700
C424        C  0.20255488  0.04776238  0.97559450    -0.11600
H425        H  0.21373530  0.05868532  0.89221902     0.13000
C426        C  0.10964822  0.49364779  0.84836413    -0.22400
H427        H  0.09637533  0.48358842  0.93092537     0.08700
C428        C  0.13100786  0.00398265  0.02998474     0.05000
C429        C  0.14318098  0.99901029  0.06984154    -0.19700
C430        C  0.16358054  0.48347729  0.07310737    -0.12000
C431        C  0.17798046  0.46379387  0.04095497     0.13700
C432        C  0.16237996  0.46664745  0.00314802    -0.22400
C433        C  0.09953116  0.02745700  0.02193581    -0.05500
H434        H  0.12996271  0.01264329  0.09442392     0.15200
C435        C  0.21321836  0.44489994  0.04257483    -0.15600
H436        H  0.17584406  0.45467492  0.97741230     0.09600
H437        H  0.08467614  0.47998659  0.86229341     0.07400
H438        H  0.12579785  0.47333066  0.83317438     0.08600
H439        H  0.10210751  0.51516356  0.82500105     0.07700
H440        H  0.21514118  0.02600821  0.99442262     0.02500
H441        H  0.18536895  0.06349378  0.99612979     0.03000
H442        H  0.22505564  0.06475454  0.96169896     0.06500
H443        H  0.08705350  0.03668049  0.05090745     0.05500
H444        H  0.06700263  0.52046134  0.00719740    -0.00300
H445        H  0.10823011  0.05147613  0.00097220     0.01200
H446        H  0.21065390  0.41754230  0.03290068     0.04900
H447        H  0.22342621  0.44270031  0.07367259     0.06800
H448        H  0.23342310  0.45979981  0.02081535     0.07700
C449        C  0.31461907  0.10231871  0.41841583    -0.21900
C450        C  0.31396184  0.07186294  0.44750347     0.10000
C451        C  0.31124922  0.03775617  0.43245287     0.10400
C452        C  0.31200434  0.03500924  0.38977199    -0.16800
C453        C  0.30932788  0.06513275  0.36073563    -0.27300
C454        C  0.31100320  0.09944399  0.37570118     0.18800
C455        C  0.31261416  0.07624075  0.49327423     0.12700
C456        C  0.30395203  0.00359643  0.46022884    -0.11600
H457        H  0.31055913  0.00840626  0.37932095     0.13000
C458        C  0.30666622  0.13299527  0.34760886    -0.22400
H459        H  0.31597012  0.12863118  0.42955741     0.08700
C460        C  0.33574383  0.05796882  0.52073198     0.05000
C461        C  0.32851847  0.05773399  0.56368591    -0.19700
C462        C  0.29965478  0.07626239  0.58076143    -0.12000
C463        C  0.27782520  0.09619556  0.55368930     0.13700
C464        C  0.28465739  0.09615339  0.51050211    -0.22400
C465        C  0.36724140  0.03676491  0.50622760    -0.05500
H466        H  0.34489795  0.04167899  0.58415798     0.15200
C467        C  0.24577237  0.11549545  0.57037415    -0.15600
H468        H  0.26666243  0.11002639  0.49009301     0.09600
H469        H  0.30827789  0.15741603  0.36433197     0.07400
H470        H  0.28020437  0.13254125  0.33437651     0.08600
H471        H  0.32817620  0.13496185  0.32240365     0.07700
H472        H  0.29758032  0.00802755  0.49297955     0.02500
H473        H  0.32749143  0.98624228  0.45801275     0.03000
H474        H  0.28048268  0.98921559  0.45021738     0.06500
H475        H  0.39171506  0.04594347  0.51951102     0.05500
H476        H  0.37189256  0.03964594  0.47234924    -0.00300
H477        H  0.36280570  0.00794026  0.51685950     0.01200
H478        H  0.23086894  0.12902963  0.54523138     0.04900
H479        H  0.25450432  0.13609158  0.59010124     0.06800
H480        H  0.22727195  0.09611454  0.58913986     0.07700
C481        C  0.48027626  0.06456062  0.48586620    -0.21900
C482        C  0.45732061  0.08108634  0.45795551     0.10000
C483        C  0.43133944  0.10498834  0.47211549     0.10400
C484        C  0.42777284  0.11031462  0.51411684    -0.16800
C485        C  0.44877565  0.09148335  0.54238870    -0.27300
C486        C  0.47540321  0.06846031  0.52830302     0.18800
C487        C  0.46044663  0.07372266  0.41389456     0.12700
C488        C  0.40709130  0.12461897  0.44305027    -0.11600
H489        H  0.40722946  0.12785717  0.52531981     0.13000
C490        C  0.49746254  0.04699726  0.55816918    -0.22400
H491        H  0.50122409  0.04770201  0.47467861     0.08700
C492        C  0.48764400  0.08983252  0.38637798     0.05000
C493        C  0.48422793  0.09070378  0.34380966    -0.19700
C494        C  0.45323383  0.07746826  0.32801203    -0.12000
C495        C  0.42761804  0.05848203  0.35559663     0.13700
C496        C  0.43232400  0.05558676  0.39811982    -0.22400
C497        C  0.51914821  0.10812898  0.40163704    -0.05500
H498        H  0.50474667  0.10434421  0.32285010     0.15200
C499        C  0.39325678  0.04529583  0.34137678    -0.15600
H500        H  0.41203672  0.04226159  0.41935480     0.09600
H501        H  0.51777533  0.03094597  0.54198590     0.07400
H502        H  0.47980504  0.02835750  0.57911827     0.08600
H503        H  0.51136757  0.06522323  0.57693182     0.07700
H504        H  0.38951616  0.10527360  0.42999843     0.02500
H505        H  0.42337468  0.13989251  0.41748412     0.03000
H506        H  0.38973410  0.14370874  0.45886894     0.06500
H507        H  0.53673876  0.12045144  0.37534757     0.05500
H508        H  0.53473643  0.08842280  0.42000074    -0.00300
H509        H  0.51010288  0.12941354  0.42115321     0.01200
H510        H  0.39822328  0.02802457  0.31593217     0.04900
H511        H  0.37754695  0.06868424  0.33053800     0.06800
H512        H  0.37772385  0.02933255  0.36680618     0.07700
C513        C  0.39910767  0.18997654  0.89120344    -0.21900
C514        C  0.37012240  0.17401114  0.91529932     0.10000
C515        C  0.34370191  0.15580708  0.89593909     0.10400
C516        C  0.34774518  0.15290054  0.85308914    -0.16800
C517        C  0.37752429  0.16797781  0.82873154    -0.27300
C518        C  0.40352837  0.18727819  0.84852350     0.18800
C519        C  0.37114035  0.17270972  0.96098641     0.12700
C520        C  0.31091692  0.13919408  0.91953155    -0.11600
H521        H  0.32745497  0.13851823  0.83876132     0.13000
C522        C  0.43634546  0.20538397  0.82581344    -0.22400
H523        H  0.41864728  0.20452266  0.90626662     0.08700
C524        C  0.39013646  0.14554191  0.98241018     0.05000
C525        C  0.38964749  0.14343703  0.02549727    -0.19700
C526        C  0.37193149  0.16892651  0.04782808    -0.12000
C527        C  0.35514866  0.19791445  0.02637349     0.13700
C528        C  0.35472879  0.19930947  0.98300081    -0.22400
C529        C  0.41167190  0.11932607  0.95944569    -0.05500
H530        H  0.40324321  0.12171592  0.04194862     0.15200
C531        C  0.33766414  0.22748881  0.04829167    -0.15600
H532        H  0.34188901  0.22128835  0.96622119     0.09600
H533        H  0.45257721  0.18553182  0.81020555     0.07400
H534        H  0.45376973  0.21791980  0.84687676     0.08600
H535        H  0.42847136  0.22696012  0.80270799     0.07700
H536        H  0.30980505  0.14304688  0.95289207     0.02500
H537        H  0.31001762  0.11009078  0.91614086     0.03000
H538        H  0.28696430  0.15154473  0.90650027     0.06500
H539        H  0.42469053  0.09924763  0.98047690     0.05500
H540        H  0.43260951  0.13435608  0.93929375    -0.00300
H541        H  0.39431951  0.10527957  0.93983300     0.01200
H542        H  0.35023558  0.25360241  0.03598330     0.04900
H543        H  0.34030404  0.22422249  0.08206993     0.06800
H544        H  0.30881045  0.22812702  0.04314404     0.07700
C545        C  0.34680501  0.06356284  0.00509764    -0.21900
C546        C  0.36715946  0.03986371  0.98250897     0.10000
C547        C  0.38354163  0.51508204  0.00862887     0.10400
C548        C  0.38085450  0.51260872  0.05252595    -0.16800
C549        C  0.36134759  0.03294815  0.07135035    -0.27300
C550        C  0.34118303  0.05856239  0.04832042     0.18800
C551        C  0.36155714  0.03938976  0.93665161     0.12700
C552        C  0.40970703  0.49144904  0.98744381    -0.11600
H553        H  0.39653434  0.49300158  0.06960553     0.13000
C554        C  0.31086401  0.07897194  0.06720456    -0.22400
H555        H  0.33248560  0.08457720  0.98856633     0.08700
C556        C  0.32660543  0.03834288  0.92249022     0.05000
C557        C  0.32190320  0.03919155  0.87999344    -0.19700
C558        C  0.35031779  0.03372982  0.85084410    -0.12000
C559        C  0.38540197  0.03455698  0.86454173     0.13700
C560        C  0.39052287  0.03956975  0.90647454    -0.22400
C561        C  0.29369684  0.03229939  0.95182879    -0.05500
H562        H  0.29487538  0.03853781  0.87017957     0.15200
C563        C  0.41744983  0.02788773  0.83613260    -0.15600
H564        H  0.41740952  0.04230740  0.91577989     0.09600
H565        H  0.28552696  0.07091029  0.05467148     0.07400
H566        H  0.31511000  0.10811709  0.05869592     0.08600
H567        H  0.30745976  0.07406287  0.10110230     0.07700
H568        H  0.43048485  0.50783870  0.96843686     0.02500
H569        H  0.39558303  0.47375738  0.96809843     0.03000
H570        H  0.42444792  0.47467807  0.01012729     0.06500
H571        H  0.27021700  0.02439867  0.93555981     0.05500
H572        H  0.28662473  0.05700942  0.96639262    -0.00300
H573        H  0.29295488  0.50470121  0.97734387     0.01200
H574        H  0.42049093  0.04953676  0.81058235     0.04900
H575        H  0.41450625  0.00159269  0.82348356     0.06800
H576        H  0.43690867  0.52845651  0.85607191     0.07700
C577        C  0.46136270  0.19523558  0.45871528    -0.21900
C578        C  0.43599072  0.21526638  0.43730610     0.10000
C579        C  0.41125278  0.23526557  0.46008672     0.10400
C580        C  0.41599328  0.23917415  0.50202280    -0.16800
C581        C  0.44493353  0.22337526  0.52163313    -0.27300
C582        C  0.46636556  0.19929942  0.50034688     0.18800
C583        C  0.44154599  0.22162848  0.39112386     0.12700
C584        C  0.38161770  0.25460214  0.43928239    -0.11600
H585        H  0.39949313  0.25778757  0.51807715     0.13000
C586        C  0.49671080  0.17983349  0.51973719    -0.22400
H587        H  0.47986415  0.17917130  0.44169987     0.08700
C588        C  0.47092124  0.24265554  0.37311484     0.05000
C589        C  0.47572716  0.24923275  0.33005824    -0.19700
C590        C  0.45285138  0.23473936  0.30279510    -0.12000
C591        C  0.42251181  0.21441067  0.32127433     0.13700
C592        C  0.41731894  0.20832879  0.36498434    -0.22400
C593        C  0.49725179  0.25912102  0.39933603    -0.05500
H594        H  0.49783935  0.26658435  0.31836875     0.15200
C595        C  0.39514510  0.19895882  0.29599248    -0.15600
H596        H  0.39432389  0.19282359  0.37888779     0.09600
H597        H  0.02081568  0.19436217  0.49497791     0.07400
H598        H  0.49874011  0.18512967  0.55242592     0.08600
H599        H  0.52222795  0.18785544  0.50190699     0.07700
H600        H  0.36301592  0.23482508  0.42849065     0.02500
H601        H  0.39305824  0.27195572  0.41224439     0.03000
H602        H  0.36617483  0.27132625  0.46037782     0.06500
H603        H  0.51766286  0.27629022  0.38037721     0.05500
H604        H  0.51179615  0.23782060  0.41686479    -0.00300
H605        H  0.48294766  0.27597478  0.42120374     0.01200
H606        H  0.40724331  0.17769414  0.27844540     0.04900
H607        H  0.38419899  0.22039479  0.27490630     0.06800
H608        H  0.37231852  0.18633451  0.31577554     0.07700
C609        C  0.44374390  0.38355726  0.48558514    -0.21900
C610        C  0.45830527  0.41321086  0.46040725     0.10000
C611        C  0.46548173  0.44524132  0.47831015     0.10400
C612        C  0.45896915  0.44634493  0.52104155    -0.16800
C613        C  0.44465941  0.41650992  0.54596237    -0.27300
C614        C  0.43582038  0.38507270  0.52776344     0.18800
C615        C  0.45869230  0.41159159  0.41518710     0.12700
C616        C  0.47880737  0.47895576  0.45313053    -0.11600
H617        H  0.46427226  0.47090230  0.53482935     0.13000
C618        C  0.41569700  0.35354143  0.55084536    -0.22400
H619        H  0.43581734  0.35980013  0.47173460     0.08700
C620        C  0.47666001  0.38443667  0.39530031     0.05000
C621        C  0.46988740  0.37962866  0.35443364    -0.19700
C622        C  0.44486318  0.40066924  0.33306394    -0.12000
C623        C  0.42773764  0.42859315  0.35291596     0.13700
C624        C  0.43552467  0.43404577  0.39328093    -0.22400
C625        C  0.50295733  0.36046703  0.41693384    -0.05500
H626        H  0.48355817  0.35838461  0.33966697     0.15200
C627        C  0.40053688  0.45239352  0.33293255    -0.15600
H628        H  0.42158239  0.45464149  0.40895426     0.09600
H629        H  0.43262603  0.32964359  0.55095795     0.07400
H630        H  0.39161926  0.34730924  0.53480090     0.08600
H631        H  0.40662752  0.35833446  0.58285744     0.07700
H632        H  0.45767662  0.49931105  0.45431678     0.02500
H633        H  0.48635568  0.47500650  0.42043745     0.03000
H634        H  0.50276904  0.48925973  0.46630475     0.06500
H635        H  0.51409109  0.34067134  0.39665000     0.05500
H636        H  0.49017854  0.34474522  0.44452960    -0.00300
H637        H  0.52522620  0.37689379  0.42626271     0.01200
H638        H  0.37752425  0.43652810  0.32462542     0.04900
H639        H  0.41309091  0.46804632  0.30498226     0.06800
H640        H  0.38925029  0.47109980  0.35452668     0.07700
C641        C  0.35936026  0.30945262  0.90152760    -0.21900
C642        C  0.34955030  0.34234802  0.91568375     0.10000
C643        C  0.34090592  0.37100621  0.88697943     0.10400
C644        C  0.34410099  0.36642525  0.84468532    -0.16800
C645        C  0.35546284  0.33392580  0.83039238    -0.27300
C646        C  0.36145084  0.30463232  0.85940693     0.18800
C647        C  0.35205736  0.34681722  0.96003146     0.12700
C648        C  0.32980787  0.40714090  0.89971643    -0.11600
H649        H  0.33975579  0.38909846  0.82269977     0.13000
C650        C  0.37055561  0.26803768  0.84719993    -0.22400
H651        H  0.36633511  0.28752282  0.92345580     0.08700
C652        C  0.32894179  0.32844704  0.99103735     0.05000
C653        C  0.33348547  0.33284140  0.03273851    -0.19700
C654        C  0.36088564  0.35512688  0.04351991    -0.12000
C655        C  0.38329876  0.37411854  0.01244956     0.13700
C656        C  0.37895717  0.36930326  0.97120389    -0.22400
C657        C  0.29938001  0.30475769  0.97989920    -0.05500
H658        H  0.31582507  0.31889802  0.05684366     0.15200
C659        C  0.41047900  0.40098994  0.02284928    -0.15600
H660        H  0.39633784  0.38350065  0.94755855     0.09600
H661        H  0.35153438  0.24796401  0.86401590     0.07400
H662        H  0.39803224  0.26200922  0.85583656     0.08600
H663        H  0.36888333  0.26547273  0.81381078     0.07700
H664        H  0.35011338  0.42781332  0.88722548     0.02500
H665        H  0.32620950  0.40784394  0.93364312     0.03000
H666        H  0.30403908  0.41426588  0.88686637     0.06500
H667        H  0.28422858  0.29219735  0.00776811     0.05500
H668        H  0.31063478  0.28299226  0.96257351    -0.00300
H669        H  0.28092592  0.32063384  0.96058452     0.01200
H670        H  0.42558829  0.41376176  0.99477153     0.04900
H671        H  0.42973358  0.38781083  0.04316835     0.06800
H672        H  0.39666754  0.42200924  0.03944159     0.07700
C673        C  0.28099943  0.36560555  0.42982942    -0.21900
C674        C  0.31650238  0.36205052  0.44019550     0.10000
C675        C  0.34349787  0.36255422  0.40750701     0.10400
C676        C  0.33570900  0.37519061  0.36707965    -0.16800
C677        C  0.30080247  0.38406685  0.35799735    -0.27300
C678        C  0.27274031  0.37470755  0.38893175     0.18800
C679        C  0.32395412  0.36352038  0.48475383     0.12700
C680        C  0.38027268  0.34921784  0.41413554    -0.11600
H681        H  0.35717193  0.37909049  0.34315267     0.13000
C682        C  0.23377428  0.37583364  0.38023230    -0.22400
H683        H  0.25953554  0.36305556  0.45400986     0.08700
C684        C  0.34249643  0.39323737  0.49774003     0.05000
C685        C  0.34111242  0.39886002  0.53984136    -0.19700
C686        C  0.31669467  0.37968933  0.56852242    -0.12000
C687        C  0.30057511  0.34829837  0.55662341     0.13700
C688        C  0.30512449  0.34007117  0.51520872    -0.22400
C689        C  0.35971705  0.42203531  0.46729751    -0.05500
H690        H  0.35330679  0.42307977  0.54878136     0.15200
C691        C  0.27490166  0.32557344  0.58579975    -0.15600
H692        H  0.29059016  0.31736383  0.50583886     0.09600
H693        H  0.22029717  0.39724212  0.39657381     0.07400
H694        H  0.22070535  0.34965574  0.39138493     0.08600
H695        H  0.22988099  0.38042092  0.34680559     0.07700
H696        H  0.38667013  0.32862629  0.39268821     0.02500
H697        H  0.38273260  0.33757944  0.44631497     0.03000
H698        H  0.39996610  0.37107327  0.40638143     0.06500
H699        H  0.37010924  0.44489537  0.48263212     0.05500
H700        H  0.34016976  0.43259550  0.44539144    -0.00300
H701        H  0.38248449  0.41092297  0.45014337     0.01200
H702        H  0.24775939  0.32684636  0.57417999     0.04900
H703        H  0.27346495  0.33449491  0.61737461     0.06800
H704        H  0.28373598  0.29732362  0.58790050     0.07700
C705        C  0.15455870  0.41708154  0.48656703    -0.21900
C706        C  0.12137314  0.42152918  0.46983598     0.10000
C707        C  0.09105566  0.42849414  0.49592406     0.10400
C708        C  0.09434340  0.42930171  0.53841546    -0.16800
C709        C  0.12754986  0.42509828  0.55513000    -0.27300
C710        C  0.15816526  0.41929213  0.52877798     0.18800
C711        C  0.11878263  0.41611623  0.42567121     0.12700
C712        C  0.05510888  0.43620034  0.47993404    -0.11600
H713        H  0.07094634  0.43404207  0.55849042     0.13000
C714        C  0.19455333  0.41443236  0.54505312    -0.22400
H715        H  0.17768168  0.41152251  0.46648725     0.08700
C716        C  0.13067836  0.44235772  0.39379318     0.05000
C717        C  0.12665114  0.43606479  0.35259965    -0.19700
C718        C  0.11267475  0.40330205  0.34208512    -0.12000
C719        C  0.10263574  0.37614746  0.37447076     0.13700
C720        C  0.10506167  0.38338661  0.41571884    -0.22400
C721        C  0.14812966  0.47675155  0.40314129    -0.05500
H722        H  0.13530217  0.45674646  0.32841490     0.15200
C723        C  0.09106023  0.33886980  0.36647364    -0.15600
H724        H  0.09700193  0.36302524  0.44055036     0.09600
H725        H  0.20309287  0.43970775  0.55685437     0.07400
H726        H  0.21497124  0.40801291  0.52063002     0.08600
H727        H  0.19375572  0.39227483  0.57020678     0.07700
H728        H  0.03556111  0.41505189  0.49317430     0.02500
H729        H  0.05558024  0.43804230  0.44579269     0.03000
H730        H  0.04622672  0.46236882  0.48983802     0.06500
H731        H  0.15478841  0.49502176  0.37477122     0.05500
H732        H  0.17326764  0.47078164  0.41826437    -0.00300
H733        H  0.12994140  0.49082329  0.42409440     0.01200
H734        H  0.08549407  0.32120638  0.39555653     0.04900
H735        H  0.06634296  0.33974052  0.34969524     0.06800
H736        H  0.11259378  0.32639875  0.34809127     0.07700
C737        C  0.15938284  0.31545806  0.91252621    -0.21900
C738        C  0.18332536  0.33873370  0.92773090     0.10000
C739        C  0.20466895  0.36265174  0.90024321     0.10400
C740        C  0.20208243  0.36206526  0.85759976    -0.16800
C741        C  0.17772460  0.33894773  0.84176022    -0.27300
C742        C  0.15544336  0.31569286  0.87013323     0.18800
C743        C  0.18281673  0.33980041  0.97280748     0.12700
C744        C  0.22967251  0.38920778  0.91586252    -0.11600
H745        H  0.21870442  0.38042773  0.83664135     0.13000
C746        C  0.12667365  0.29145240  0.85724125    -0.22400
H747        H  0.14265191  0.29788176  0.93433942     0.08700
C748        C  0.16055603  0.36384877  0.99288095     0.05000
C749        C  0.16241039  0.36575900  0.03531692    -0.19700
C750        C  0.18530992  0.34353256  0.05789165    -0.12000
C751        C  0.20409746  0.31652236  0.03887417     0.13700
C752        C  0.20316642  0.31526077  0.99605174    -0.22400
C753        C  0.13457207  0.38697232  0.96961205    -0.05500
H754        H  0.14648047  0.38512091  0.05086131     0.15200
C755        C  0.22479421  0.28932175  0.06395655    -0.15600
H756        H  0.21829361  0.29529901  0.98065842     0.09600
H757        H  0.11285145  0.27524261  0.88404599     0.07400
H758        H  0.13815682  0.27238082  0.83631943     0.08600
H759        H  0.10602208  0.30754565  0.84186697     0.07700
H760        H  0.25044467  0.37478485  0.93313784     0.02500
H761        H  0.21469726  0.40652837  0.93659280     0.03000
H762        H  0.24296281  0.40698813  0.89007775     0.06500
H763        H  0.11882141  0.40384889  0.99024148     0.05500
H764        H  0.11551358  0.36970000  0.95548972    -0.00300
H765        H  0.14903812  0.40487764  0.94480222     0.01200
H766        H  0.23636574  0.26889938  0.04481611     0.04900
H767        H  0.20672398  0.27502419  0.08865338     0.06800
H768        H  0.24668551  0.30285505  0.07814332     0.07700
C769        C  0.50279797  0.41389925  0.96586171    -0.21900
C770        C  0.98837396  0.38653230  0.94249071     0.10000
C771        C  0.97424278  0.35289215  0.96022112     0.10400
C772        C  0.97709238  0.34268176  0.00255223    -0.16800
C773        C  0.99575487  0.36403569  0.02746986    -0.27300
C774        C  0.50749140  0.40227668  0.00767749     0.18800
C775        C  0.99451837  0.39389913  0.89647676     0.12700
C776        C  0.95984272  0.32582571  0.93375965    -0.11600
H777        H  0.96885454  0.31578775  0.01500383     0.13000
C778        C  0.52767184  0.42609900  0.03312031    -0.22400
H779        H  0.51373341  0.43968052  0.95277044     0.08700
C780        C  0.46632470  0.40323872  0.86646800     0.05000
C781        C  0.47155188  0.39303302  0.82597828    -0.19700
C782        C  0.00517438  0.37796421  0.81360323    -0.12000
C783        C  0.03494302  0.38356830  0.83692570     0.13700
C784        C  0.02919366  0.38989285  0.87870688    -0.22400
C785        C  0.43086706  0.41789895  0.87967757    -0.05500
H786        H  0.44878930  0.39116141  0.80747526     0.15200
C787        C  0.07259095  0.38076795  0.81832393    -0.15600
H788        H  0.05153490  0.38922364  0.89813067     0.09600
H789        H  0.51094808  0.43094203  0.06142314     0.07400
H790        H  0.53474360  0.45245549  0.01582596     0.08600
H791        H  0.55284300  0.41317203  0.04200675     0.07700
H792        H  0.98103247  0.31888785  0.91049881     0.02500
H793        H  0.93683072  0.33685571  0.91758248     0.03000
H794        H  0.95060605  0.30070073  0.95237708     0.06500
H795        H  0.40984109  0.39728837  0.87790800     0.05500
H796        H  0.42510971  0.44171447  0.85847177    -0.00300
H797        H  0.43058686  0.42664442  0.91127266     0.01200
H798        H  0.09264461  0.38568410  0.84078531     0.04900
H799        H  0.07708707  0.40105777  0.79136746     0.06800
H800        H  0.07727189  0.35390057  0.80782441     0.07700
C801        C  0.10654065  0.21756474  0.47513540    -0.21900
C802        C  0.13662315  0.20960847  0.44961817     0.10000
C803        C  0.16856557  0.19971062  0.46789967     0.10400
C804        C  0.17097168  0.20287607  0.51018408    -0.16800
C805        C  0.14258722  0.21659344  0.53395262    -0.27300
C806        C  0.10899903  0.22038804  0.51734141     0.18800
C807        C  0.13379349  0.21447514  0.40417147     0.12700
C808        C  0.20102345  0.18757730  0.44354385    -0.11600
H809        H  0.19673589  0.19965538  0.52310779     0.13000
C810        C  0.07719047  0.23286610  0.54275989    -0.22400
H811        H  0.08168058  0.22420739  0.46139446     0.08700
C812        C  0.10721785  0.19613139  0.38571542     0.05000
C813        C  0.10034670  0.20620516  0.34487780    -0.19700
C814        C  0.11807796  0.23564462  0.32179748    -0.12000
C815        C  0.14735043  0.25166583  0.33860926     0.13700
C816        C  0.15459289  0.24120238  0.37993278    -0.22400
C817        C  0.08463396  0.16652897  0.40870446    -0.05500
H818        H  0.07977500  0.19135607  0.33160846     0.15200
C819        C  0.17050189  0.27992851  0.31358695    -0.15600
H820        H  0.17547077  0.25500572  0.39394732     0.09600
H821        H  0.05340492  0.23598614  0.52459222     0.07400
H822        H  0.08282712  0.25940863  0.55364037     0.08600
H823        H  0.07065201  0.21315068  0.56984849     0.07700
H824        H  0.22343201  0.20696747  0.44470910     0.02500
H825        H  0.19628618  0.18516875  0.41076681     0.03000
H826        H  0.20899355  0.16085970  0.45725109     0.06500
H827        H  0.08628325  0.14268062  0.39118672     0.05500
H828        H  0.05654782  0.17539023  0.41195932    -0.00300
H829        H  0.09351496  0.15842713  0.43971023     0.01200
H830        H  0.15432239  0.30314525  0.30314628     0.04900
H831        H  0.18332160  0.26846520  0.28614857     0.06800
H832        H  0.19197402  0.28978913  0.33169560     0.07700
N833        N  0.12019926  0.75785432  0.24133737    -0.02900
C834        C  0.10237016  0.75249366  0.27938078    -0.00300
C835        C  0.06656649  0.74626288  0.27510277    -0.23200
C836        C  0.06460262  0.73839115  0.23529554    -0.23400
C837        C  0.09977417  0.73700082  0.21941381    -0.00400
H838        H  0.04655854  0.73948147  0.29997984     0.13300
H839        H  0.04279814  0.72280694  0.22559709     0.13400
N840        N  0.14077118  0.74907747  0.59861060    -0.02900
C841        C  0.15133963  0.74700291  0.55796837    -0.00300
C842        C  0.16124585  0.78032005  0.53850919    -0.23200
C843        C  0.15621354  0.80419044  0.56698471    -0.23400
C844        C  0.14397304  0.78483266  0.60336479    -0.00400
H845        H  0.16867413  0.78686136  0.50596649     0.13300
H846        H  0.16136399  0.83281944  0.56183533     0.13400
N847        N  0.01662842  0.85851748  0.74352425    -0.02900
C848        C  0.00759960  0.85419959  0.78532737    -0.00300
C849        C  0.01867652  0.82188189  0.80317267    -0.23200
C850        C  0.04099516  0.80869191  0.77420950    -0.23400
C851        C  0.04360933  0.83391551  0.74014202    -0.00400
H852        H  0.01647449  0.81260810  0.83572452     0.13300
H853        H  0.05958097  0.78763767  0.78119831     0.13400
N854        N  0.01716279  0.85344472  0.09803323    -0.02900
C855        C  0.01393029  0.84679819  0.05780856    -0.00300
C856        C  0.04412504  0.83043701  0.04243316    -0.23200
C857        C  0.06708005  0.82724280  0.07298495    -0.23400
C858        C  0.05077457  0.84170956  0.10693438    -0.00400
H859        H  0.04989009  0.82378202  0.01106271     0.13300
H860        H  0.09390764  0.81699867  0.06986722     0.13400
O861        O  0.15555783  0.82477410  0.78055809    -0.80400
O862        O  0.11392367  0.90590066  0.62450421    -0.65000
O863        O  0.16804125  0.85164630  0.69992127    -1.11600
C864        C  0.18801326  0.96510252  0.74968188     1.06500
O865        O  0.16005027  0.94381243  0.61153778    -0.78300
O866        O  0.21615056  0.94932577  0.65946086    -0.65800
Ni867      Ni  0.15322995  0.80747086  0.72699376     1.34900
C868        C  0.23647406  0.92291583  0.66741055     0.85300
O869        O  0.12860022  0.83558342  0.63591731    -0.78800
O870        O  0.15150782  0.78909216  0.67424023    -0.89100
C871        C  0.13460994  0.92554562  0.59906743     0.84800
O872        O  0.10270381  0.81458932  0.72903265    -0.67300
O873        O  0.17453930  0.97893412  0.71715489    -0.86600
C874        C  0.08133527  0.83993988  0.72018487     0.85700
C875        C  0.13980745  0.80338771  0.64083665     1.07200
H876        H  0.12935394  0.92195585  0.71082362     0.39000
O877        O  0.15029477  0.91627625  0.69388384    -1.09200
O878        O  0.22615245  0.89644586  0.69349750    -0.65900
Ni879      Ni  0.18090845  0.89050590  0.72940804     1.26300
O880        O  0.09225360  0.86857216  0.69813531    -0.66100
O881        O  0.19325708  0.93148541  0.75693955    -0.78400
C882        C  0.18187581  0.84066542  0.79433757     0.85100
O883        O  0.20356022  0.86032049  0.76970812    -0.65600
Ni884      Ni  0.16661876  0.96005543  0.66556839     1.27400
Ni885      Ni  0.13798941  0.87685303  0.66422440     1.26100
H886        H  0.18892086  0.84614349  0.68281859     0.39600
O887        O  0.20952613  0.88042174  0.10958288    -0.80400
O888        O  0.13172656  0.91879616  0.26983992    -0.65000
O889        O  0.18681953  0.86871544  0.19321577    -1.11600
C890        C  0.07256794  0.84717754  0.14304515     1.06500
O891        O  0.09524813  0.87167470  0.28391391    -0.78300
O892        O  0.09400989  0.81487671  0.23807307    -0.65800
Ni893      Ni  0.22766837  0.88857499  0.16222659     1.34900
C894        C  0.11995367  0.79589507  0.22539522     0.85300
O895        O  0.20283796  0.91041617  0.25667047    -0.78800
O896        O  0.24858466  0.89753610  0.21238654    -0.89100
C897        C  0.11241487  0.89817858  0.29567790     0.84800
O898        O  0.21267264  0.93726041  0.15553572    -0.67300
O899        O  0.05860440  0.85528467  0.17786562    -0.86600
C900        C  0.18672866  0.95586259  0.16869531     0.85700
C901        C  0.23633523  0.90854331  0.24631576     1.07200
H902        H  0.11352746  0.90371016  0.18491724     0.39000
O903        O  0.12109086  0.88277366  0.20144618    -1.09200
O904        O  0.14370470  0.80882237  0.19810987    -0.65900
Ni905      Ni  0.14719033  0.85497895  0.16460393     1.26300
O906        O  0.16334972  0.94278236  0.19639488    -0.66100
O907        O  0.10622624  0.84353107  0.13622115    -0.78400
C908        C  0.19421092  0.85236262  0.09937584     0.85100
O909        O  0.17595029  0.83163281  0.12572301    -0.65600
Ni910      Ni  0.07875163  0.86352821  0.23008451     1.27400
Ni911      Ni  0.16090241  0.89669645  0.23017323     1.26100
H912        H  0.19481261  0.84781834  0.20944278     0.39600
N913        N  0.29235524  0.90275572  0.28563672    -0.02900
C914        C  0.29930953  0.91364067  0.32320522    -0.00300
C915        C  0.27811582  0.94269776  0.33119040    -0.23200
C916        C  0.25361194  0.94576045  0.30192725    -0.23400
C917        C  0.26200366  0.92019815  0.27529005    -0.00400
H918        H  0.27558678  0.95500921  0.35997723     0.13300
H919        H  0.23003412  0.96212949  0.30261471     0.13400
N920        N  0.29754954  0.89937843  0.63545487    -0.02900
C921        C  0.30206324  0.89860888  0.59314545    -0.00300
C922        C  0.28399844  0.92544792  0.57233023    -0.23200
C923        C  0.26633130  0.94302884  0.60109049    -0.23400
C924        C  0.27064948  0.92432919  0.63916870    -0.00400
H925        H  0.28402759  0.93173774  0.53921743     0.13300
H926        H  0.24761740  0.96406160  0.59386184     0.13400
O927        O  0.41409003  0.93398788  0.59800217    -0.80400
O928        O  0.35598106  0.85186451  0.76115767    -0.65000
O929        O  0.41395247  0.91039206  0.68140600    -1.11600
C930        C  0.44988806  0.79579278  0.64007562     1.06500
O931        O  0.40459676  0.82152454  0.77703734    -0.78300
O932        O  0.46823638  0.82093667  0.73133207    -0.65800
Ni933      Ni  0.39655290  0.95085811  0.64998914     1.34900
C934        C  0.48691526  0.84920765  0.71911237     0.85300
O935        O  0.36239484  0.92292883  0.74354093    -0.78800
O936        O  0.37855079  0.97118154  0.69990168    -0.89100
C937        C  0.37442592  0.83479281  0.78769601     0.84800
O938        O  0.34966517  0.93241010  0.64199318    -0.67300
O939        O  0.43598024  0.78211436  0.67497110    -0.86600
C940        C  0.33083789  0.90462327  0.65533631     0.85700
C941        C  0.36375362  0.95681379  0.73400503     1.07200
H942        H  0.38561732  0.83359071  0.67721345     0.39000
O943        O  0.40334679  0.84329083  0.69347851    -1.09200
O944        O  0.47622785  0.87240852  0.69132411    -0.65900
Ni945      Ni  0.43537873  0.87101567  0.65583362     1.26300
O946        O  0.34122832  0.88166475  0.68366703    -0.66100
O947        O  0.45480347  0.82965610  0.63132899    -0.78400
C948        C  0.44317756  0.91863179  0.58777635     0.85100
O949        O  0.46149986  0.90154992  0.61431926    -0.65600
Ni950      Ni  0.42056411  0.80329863  0.72518215     1.27400
Ni951      Ni  0.38209057  0.88239270  0.71917017     1.26100
H952        H  0.43161848  0.92009542  0.69769555     0.39600
O953        O  0.46196060  0.87105341  0.26966733    -0.80400
O954        O  0.39233643  0.83731619  0.11304213    -0.65000
O955        O  0.43543542  0.88946617  0.19197929    -1.11600
C956        C  0.32041854  0.89534803  0.25451660     1.06500
O957        O  0.34868202  0.87711956  0.10755733    -0.78300
O958        O  0.36272647  0.93261197  0.15046335    -0.65800
Ni959      Ni  0.47969385  0.87545339  0.21232897     1.34900
C960        C  0.36916334  0.95284673  0.17819472     0.85300
O961        O  0.46059558  0.85567991  0.12060275    -0.78800
O962        O  0.50163726  0.87939645  0.15704636    -0.89100
C963        C  0.36865838  0.85347834  0.09273920     0.84800
O964        O  0.47322049  0.82474689  0.21081087    -0.67300
O965        O  0.31471658  0.90225870  0.21626547    -0.86600
C966        C  0.45022529  0.80258199  0.20000564     0.85700
C967        C  0.49312743  0.86338908  0.12629938     1.07200
H968        H  0.36393642  0.84161473  0.19885765     0.39000
O969        O  0.37256984  0.86507596  0.18734333    -1.09200
O970        O  0.38115145  0.93913251  0.21173059    -0.65900
Ni971      Ni  0.39389236  0.88887362  0.22940458     1.26300
O972        O  0.42289820  0.81349039  0.18169047    -0.66100
O973        O  0.35095574  0.88528113  0.26548120    -0.78400
C974        C  0.44400812  0.89434102  0.28784016     0.85100
O975        O  0.41818353  0.90956422  0.27083024    -0.65600
Ni976      Ni  0.33463121  0.88942087  0.16265119     1.27400
Ni977      Ni  0.41571325  0.86094182  0.15307026     1.26100
H978        H  0.43891523  0.91351671  0.17870209     0.39600
N979        N  0.43420314  0.73823857  0.23020425    -0.02900
C980        C  0.44640962  0.73729195  0.26898321    -0.00300
C981        C  0.48215379  0.74605652  0.26625470    -0.23200
C982        C  0.49079827  0.75879557  0.22631488    -0.23400
C983        C  0.45807626  0.76295114  0.20926255    -0.00400
H984        H  0.49805186  0.74904151  0.29198972     0.13300
H985        H  0.51481013  0.77463928  0.21691038     0.13400
N986        N  0.44169133  0.74428265  0.59474911    -0.02900
C987        C  0.45643977  0.73854927  0.55655657    -0.00300
C988        C  0.48517962  0.76167170  0.54562158    -0.23200
C989        C  0.48811661  0.78275102  0.57741034    -0.23400
C990        C  0.46093483  0.77227121  0.60701232    -0.00400
H991        H  0.50021224  0.76522274  0.51593300     0.13300
H992        H  0.50617198  0.80550124  0.57727024     0.13400
N993        N  0.35135354  0.51122265  0.77988961    -0.02900
C994        C  0.33498536  0.51269761  0.81882945    -0.00300
C995        C  0.31759080  0.98366425  0.82542395    -0.23200
C996        C  0.32130628  0.96228077  0.79421713    -0.23400
C997        C  0.34605732  0.97875194  0.76525350    -0.00400
H998        H  0.30249797  0.97637519  0.85453587     0.13300
H999        H  0.30937492  0.93582518  0.79435069     0.13400
N1000       N  0.36408308  0.51733457  0.15261364    -0.02900
C1001       C  0.34418652  0.51842157  0.11859624    -0.00300
C1002       C  0.31773191  0.00087985  0.12376171    -0.23200
C1003       C  0.31808751  0.98591144  0.16354625    -0.23400
C1004       C  0.35307104  0.98987376  0.17445393    -0.00400
H1005       H  0.29868146  0.99517233  0.10183890     0.13300
H1006       H  0.29939033  0.96483570  0.17619754     0.13400
O1007       O  0.39619087  0.68493176  0.76538871    -0.80400
O1008       O  0.45157053  0.61607468  0.61373832    -0.65000
O1009       O  0.38794898  0.65857387  0.69023849    -1.11600
C1010       C  0.36429369  0.54133017  0.75073379     1.06500
O1011       O  0.41099537  0.57357476  0.60684620    -0.78300
O1012       O  0.34929162  0.58741985  0.64576556    -0.65800
Ni1013     Ni  0.39886856  0.70331205  0.70851849     1.34900
C1014       C  0.32432006  0.59752555  0.67003744     0.85300
O1015       O  0.43309018  0.68396471  0.61963727    -0.78800
O1016       O  0.40322745  0.72538985  0.65265737    -0.89100
C1017       C  0.43738107  0.59364648  0.59262595     0.84800
O1018       O  0.44956144  0.69854104  0.70719291    -0.67300
O1019       O  0.36474823  0.53716186  0.71220846    -0.86600
C1020       C  0.47332296  0.67560835  0.69891939     0.85700
C1021       C  0.42409800  0.71650111  0.62294178     1.07200
H1022       H  0.43073656  0.58595323  0.69945739     0.39000
O1023       O  0.40975364  0.59521836  0.68688168    -1.09200
O1024       O  0.33179414  0.60768431  0.70521643    -0.65900
Ni1025     Ni  0.37935579  0.61612129  0.72783485     1.26300
O1026       O  0.46493242  0.64684480  0.68308849    -0.66100
O1027       O  0.37254358  0.57155256  0.76314248    -0.78400
C1028       C  0.37431572  0.66390387  0.78742689     0.85100
O1029       O  0.35583938  0.64083648  0.77109122    -0.65600
Ni1030     Ni  0.38859267  0.55833044  0.66064439     1.27400
Ni1031     Ni  0.42192931  0.63902971  0.65279963     1.26100
H1032       H  0.36665158  0.66253001  0.67550226     0.42800
O1033       O  0.34703169  0.63335364  0.11431683    -0.80400
O1034       O  0.41813030  0.57210105  0.26985979    -0.65000
O1035       O  0.36974473  0.63497174  0.19396884    -1.11600
C1036       C  0.48852627  0.65513255  0.13242836     1.06500
O1037       O  0.45258156  0.61943791  0.27630246    -0.78300
O1038       O  0.45974821  0.68106562  0.22802153    -0.65800
Ni1039     Ni  0.32783944  0.62197255  0.17060019     1.34900
C1040       C  0.43614083  0.70246331  0.21433766     0.85300
O1041       O  0.34713418  0.58484831  0.26411829    -0.78800
O1042       O  0.30563509  0.61003791  0.22522914    -0.89100
C1043       C  0.43901429  0.58924948  0.29077280     0.84800
O1044       O  0.33886446  0.57293449  0.16410294    -0.67300
O1045       O  0.49727854  0.64563296  0.16877849    -0.86600
C1046       C  0.36417862  0.55150948  0.17193415     0.85700
C1047       C  0.31438750  0.59199351  0.25811557     1.07200
H1048       H  0.44182096  0.59688694  0.18214451     0.39000
O1049       O  0.43349019  0.61661777  0.19714775    -1.09200
O1050       O  0.41565695  0.69334322  0.18715382    -0.65900
Ni1051     Ni  0.41169778  0.64902438  0.15877342     1.26300
O1052       O  0.38768975  0.55902521  0.19692663    -0.66100
O1053       O  0.45580531  0.65966584  0.12423119    -0.78400
C1054       C  0.36635163  0.65960466  0.09769167     0.85100
O1055       O  0.38661986  0.67682389  0.11864032    -0.65600
Ni1056     Ni  0.47355363  0.63261961  0.22197243     1.27400
Ni1057     Ni  0.39144505  0.60037273  0.23084828     1.26100
H1058       H  0.36328699  0.65477867  0.20980752     0.39600
N1059       N  0.28494394  0.57621820  0.28599213    -0.02900
C1060       C  0.28484136  0.55539968  0.32328524    -0.00300
C1061       C  0.25515414  0.53234929  0.32718975    -0.23200
C1062       C  0.23572018  0.54004978  0.29415060    -0.23400
C1063       C  0.25374100  0.56716239  0.26999888    -0.00400
H1064       H  0.24519624  0.51536508  0.35430778     0.13300
H1065       H  0.20911115  0.52985175  0.29051426     0.13400
N1066       N  0.28721350  0.59253689  0.65852980    -0.02900
C1067       C  0.28572469  0.57069768  0.62723935    -0.00300
C1068       C  0.27739687  0.53613815  0.64315416    -0.23200
C1069       C  0.26588112  0.53839365  0.68353748    -0.23400
C1070       C  0.26323146  0.57503518  0.68764970    -0.00400
H1071       H  0.27681697  0.51279141  0.62634443     0.13300
H1072       H  0.25055272  0.51716182  0.70184148     0.13400
N1073       N  0.17376146  0.51774161  0.79515478    -0.02900
C1074       C  0.18607781  0.52247192  0.83257179    -0.00300
C1075       C  0.22330190  0.99842211  0.83840605    -0.23200
C1076       C  0.22549049  0.97720664  0.80667059    -0.23400
C1077       C  0.19930177  0.98824872  0.78102434    -0.00400
H1078       H  0.23663433  0.99307585  0.86670383     0.13300
H1079       H  0.24197559  0.95381585  0.80475174     0.13400
N1080       N  0.18439537  0.99271347  0.15004049    -0.02900
C1081       C  0.19626547  0.99498651  0.10957877    -0.00300
C1082       C  0.21949996  0.51016139  0.09600526    -0.23200
C1083       C  0.22896470  0.52222542  0.13193253    -0.23400
C1084       C  0.19867264  0.51835546  0.15904731    -0.00400
H1085       H  0.23355235  0.51545819  0.06590062     0.13300
H1086       H  0.25027938  0.54167357  0.13317049     0.13400
N1087       N  0.03784847  0.66890352  0.73067359    -0.02900
C1088       C  0.03227113  0.68753928  0.76470632    -0.00300
C1089       C  0.02281699  0.72216215  0.75305757    -0.23200
C1090       C  0.51229810  0.72102863  0.71912512    -0.23400
C1091       C  0.01613806  0.68724707  0.70378731    -0.00400
H1092       H  0.50917613  0.73625523  0.78238588     0.13300
H1093       H  0.49881216  0.74373754  0.70451858     0.13400
N1094       N  0.01101700  0.66345597  0.09878359    -0.02900
C1095       C  0.00486927  0.68286566  0.06234983    -0.00300
C1096       C  0.03202869  0.70816727  0.05240277    -0.23200
C1097       C  0.05745046  0.70141764  0.07981713    -0.23400
C1098       C  0.04501760  0.67293751  0.10711426    -0.00400
H1099       H  0.03621238  0.72529207  0.02379208     0.13300
H1100       H  0.08352420  0.71435565  0.07807908     0.13400
O1101       O  0.15451325  0.57769090  0.62144721    -0.80400
O1102       O  0.19416688  0.64787011  0.77331317    -0.65000
O1103       O  0.13779776  0.60397945  0.69863335    -1.11600
C1104       C  0.13455166  0.71938357  0.63060133     1.06500
O1105       O  0.15986295  0.69623942  0.77462940    -0.78300
O1106       O  0.09869268  0.68187757  0.73896313    -0.65800
Ni1107     Ni  0.15029241  0.55967761  0.67933976     1.34900
C1108       C  0.07641300  0.66782285  0.71709858     0.85300
O1109       O  0.17182563  0.57920843  0.77101653    -0.78800
O1110       O  0.14625032  0.53858164  0.73554603    -0.89100
C1111       C  0.18353925  0.67573247  0.78976439     0.84800
O1112       O  0.20125327  0.56334331  0.68147810    -0.67300
O1113       O  0.12480413  0.72572970  0.66755408    -0.86600
C1114       C  0.22411961  0.58558061  0.69228251     0.85700
C1115       C  0.16237891  0.54675467  0.76660572     1.07200
H1116       H  0.18670794  0.67398629  0.68614745     0.39000
O1117       O  0.16348477  0.66677099  0.69906974    -1.09200
O1118       O  0.08747615  0.65633389  0.68248036    -0.65900
Ni1119     Ni  0.13674804  0.64508405  0.65986340     1.26300
O1120       O  0.21425368  0.61418166  0.70792545    -0.66100
O1121       O  0.14004471  0.68746887  0.62170530    -0.78400
C1122       C  0.13183794  0.59646531  0.60192766     0.85100
O1123       O  0.11443736  0.62026919  0.61965760    -0.65600
Ni1124     Ni  0.14229470  0.70744659  0.72056720     1.27400
Ni1125     Ni  0.16778953  0.62399366  0.73583792     1.26100
H1126       H  0.11439310  0.60042426  0.71277282     0.39600
O1127       O  0.09422059  0.61817415  0.27834800    -0.80400
O1128       O  0.17031734  0.68232140  0.11448535    -0.65000
O1129       O  0.12295603  0.61550038  0.19572120    -1.11600
C1130       C  0.23383820  0.58967498  0.24046452     1.06500
O1131       O  0.21348160  0.64381656  0.10051827    -0.78300
O1132       O  0.19357397  0.58077282  0.14179298    -0.65800
Ni1133     Ni  0.07807656  0.62533675  0.22238079     1.34900
C1134       C  0.18584148  0.55477534  0.16874960     0.85300
O1135       O  0.10226909  0.66357075  0.13043167    -0.78800
O1136       O  0.05772149  0.63443110  0.16903897    -0.89100
C1137       C  0.19339498  0.66976568  0.08956583     0.84800
O1138       O  0.08610819  0.67531032  0.22290724    -0.67300
O1139       O  0.24227937  0.59120284  0.20154531    -0.86600
C1140       C  0.10940009  0.69948809  0.20984714     0.85700
C1141       C  0.06925922  0.65536059  0.13755884     1.07200
H1142       H  0.19671157  0.65992233  0.19534776     0.39000
O1143       O  0.18743578  0.63913299  0.18377293    -1.09200
O1144       O  0.17365987  0.56110796  0.20472210    -0.65900
Ni1145     Ni  0.16360061  0.60775754  0.22682984     1.26300
O1146       O  0.13773476  0.69242774  0.18834244    -0.66100
O1147       O  0.20533253  0.60267321  0.25540226    -0.78400
C1148       C  0.11608533  0.59581865  0.29401713     0.85100
O1149       O  0.13829519  0.58010063  0.27136583    -0.65600
Ni1150     Ni  0.22509557  0.61846679  0.15251358     1.27400
Ni1151     Ni  0.14526346  0.65115357  0.15624309     1.26100
H1152       H  0.11916497  0.59451933  0.18138356     0.39600
C1153       C  0.14826280  0.60413964  0.40088890    -0.21900
C1154       C  0.12366537  0.58213723  0.42615822     0.10000
C1155       C  0.09684569  0.56368406  0.40755275     0.10400
C1156       C  0.09516035  0.56804573  0.36426498    -0.16800
C1157       C  0.11897179  0.59128146  0.33931425    -0.27300
C1158       C  0.14592615  0.60953445  0.35800243     0.18800
C1159       C  0.12454958  0.58232796  0.47191616     0.12700
C1160       C  0.06951856  0.54008634  0.43334396    -0.11600
H1161       H  0.07464446  0.55397091  0.34995522     0.13000
C1162       C  0.17160463  0.63632397  0.33411860    -0.22400
H1163       H  0.16832503  0.61883191  0.41507905     0.08700
C1164       C  0.15366949  0.56883149  0.49351326     0.05000
C1165       C  0.15468648  0.57323668  0.53580650    -0.19700
C1166       C  0.12783077  0.59164112  0.55731285    -0.12000
C1167       C  0.09852540  0.60496793  0.53547220     0.13700
C1168       C  0.09717177  0.59965547  0.49345674    -0.22400
C1169       C  0.18366629  0.54950496  0.47226299    -0.05500
H1170       H  0.17725920  0.56288134  0.55189576     0.15200
C1171       C  0.06849975  0.62501354  0.55564014    -0.15600
H1172       H  0.07493346  0.61013597  0.47689448     0.09600
H1173       H  0.19931743  0.62655799  0.33604434     0.07400
H1174       H  0.16974053  0.66239514  0.34767826     0.08600
H1175       H  0.16602317  0.64145089  0.30121707     0.07700
H1176       H  0.05324098  0.55661060  0.45353826     0.02500
H1177       H  0.08277113  0.51928229  0.45304797     0.03000
H1178       H  0.05125884  0.52660564  0.41398987     0.06500
H1179       H  0.20368009  0.53973459  0.49405270     0.05500
H1180       H  0.19786378  0.56762540  0.44748216    -0.00300
H1181       H  0.17274937  0.52599123  0.45876298     0.01200
H1182       H  0.04732738  0.63190710  0.53422918     0.04900
H1183       H  0.07890076  0.65050772  0.56532834     0.06800
H1184       H  0.05592429  0.60834387  0.58281891     0.07700
C1185       C  0.20481707  0.72297235  0.88400433    -0.21900
C1186       C  0.20558310  0.69339120  0.91351070     0.10000
C1187       C  0.20610034  0.65863179  0.90018320     0.10400
C1188       C  0.20061687  0.65363886  0.85918219    -0.16800
C1189       C  0.19634280  0.68288364  0.83026694    -0.27300
C1190       C  0.20136600  0.71797603  0.84206348     0.18800
C1191       C  0.20036608  0.69760857  0.95839628     0.12700
C1192       C  0.21048601  0.62596805  0.92916883    -0.11600
H1193       H  0.19819831  0.62656881  0.85027358     0.13000
C1194       C  0.20483377  0.74975790  0.81028575    -0.22400
H1195       H  0.20585505  0.74977848  0.89385002     0.08700
C1196       C  0.22873966  0.70642625  0.98198985     0.05000
C1197       C  0.22532211  0.69879291  0.02528020    -0.19700
C1198       C  0.19418756  0.68232107  0.04517815    -0.12000
C1199       C  0.16568489  0.67392769  0.02119845     0.13700
C1200       C  0.16845838  0.68350075  0.97862610    -0.22400
C1201       C  0.26288948  0.72257549  0.96137512    -0.05500
H1202       H  0.24752050  0.70424425  0.04346725     0.15200
C1203       C  0.13379411  0.65101893  0.03809619    -0.15600
H1204       H  0.14704953  0.67579479  0.96031750     0.09600
H1205       H  0.21243849  0.77426519  0.82435281     0.07400
H1206       H  0.17948521  0.75451556  0.79537332     0.08600
H1207       H  0.22623447  0.74494413  0.78629946     0.07700
H1208       H  0.18472493  0.61091098  0.93289210     0.02500
H1209       H  0.21822370  0.63193351  0.96004828     0.03000
H1210       H  0.23198973  0.60951188  0.91587873     0.06500
H1211       H  0.28233042  0.72698142  0.98441607     0.05500
H1212       H  0.25747998  0.74871047  0.94427077    -0.00300
H1213       H  0.27504120  0.70465716  0.93941627     0.01200
H1214       H  0.10901857  0.66646348  0.03448519     0.04900
H1215       H  0.13528658  0.64078794  0.07076350     0.06800
H1216       H  0.13220740  0.62712291  0.02044829     0.07700
C1217       C  0.03939570  0.68557253  0.88044183    -0.21900
C1218       C  0.01442934  0.65858976  0.89525181     0.10000
C1219       C  0.00100839  0.63623567  0.86679518     0.10400
C1220       C  0.01071209  0.64364293  0.82408010    -0.16800
C1221       C  0.03299040  0.67310971  0.80905763    -0.27300
C1222       C  0.04909622  0.69289304  0.83815604     0.18800
C1223       C  0.00206998  0.65684833  0.94013135     0.12700
C1224       C  0.97526186  0.60556484  0.88008646    -0.11600
H1225       H  0.99835741  0.62812341  0.80224977     0.13000
C1226       C  0.07661965  0.72217504  0.82610338    -0.22400
H1227       H  0.05075707  0.70195453  0.90218307     0.08700
C1228       C  0.01543503  0.63180732  0.97022300     0.05000
C1229       C  0.00947970  0.63687320  0.01251994    -0.19700
C1230       C  0.99161892  0.66715328  0.02562544    -0.12000
C1231       C  0.47700986  0.68488266  0.99975693     0.13700
C1232       C  0.98114343  0.68499390  0.95360420    -0.22400
C1233       C  0.03915606  0.60163928  0.95873387    -0.05500
H1234       H  0.02301943  0.61966016  0.03484996     0.15200
C1235       C  0.45811099  0.71792455  0.01210413    -0.15600
H1236       H  0.47271853  0.69891679  0.93485677     0.09600
H1237       H  0.10173831  0.71505940  0.84079298     0.07400
H1238       H  0.06681036  0.74754727  0.83748160     0.08600
H1239       H  0.08319204  0.72653202  0.79241347     0.07700
H1240       H  0.94928542  0.61080045  0.86648185     0.02500
H1241       H  0.97044061  0.60108053  0.91403761     0.03000
H1242       H  0.98632342  0.58048877  0.86915691     0.06500
H1243       H  0.02739691  0.57574024  0.97302431     0.05500
H1244       H  0.06587709  0.60564896  0.97034254    -0.00300
H1245       H  0.04287258  0.59997845  0.92497434     0.01200
H1246       H  0.44621024  0.73276726  0.98544264     0.04900
H1247       H  0.47702306  0.73628826  0.02482932     0.06800
H1248       H  0.43622549  0.71004055  0.03597417     0.07700
C1249       C  0.13217768  0.99562103  0.92508990    -0.21900
C1250       C  0.14011179  0.51159809  0.95326851     0.10000
C1251       C  0.17015995  0.53447733  0.94262868     0.10400
C1252       C  0.18034084  0.54412589  0.90095386    -0.16800
C1253       C  0.16284797  0.52944623  0.86962329    -0.27300
C1254       C  0.14175900  0.00437744  0.88282526     0.18800
C1255       C  0.15087236  0.98981150  0.99724106     0.12700
C1256       C  0.19371423  0.54550775  0.97531856    -0.11600
H1257       H  0.20542354  0.55845170  0.89282061     0.13000
C1258       C  0.12138829  0.98649004  0.85190286    -0.22400
H1259       H  0.11085084  0.97626386  0.93466892     0.08700
C1260       C  0.11882257  0.50821554  0.02825215     0.05000
C1261       C  0.13186422  0.50241153  0.06768251    -0.19700
C1262       C  0.17612534  0.98272936  0.07614061    -0.12000
C1263       C  0.19321077  0.96441255  0.04438101     0.13700
C1264       C  0.17904303  0.96665738  0.00578310    -0.22400
C1265       C  0.08912220  0.53411152  0.02086639    -0.05500
H1266       H  0.12070277  0.51728450  0.09237299     0.15200
C1267       C  0.22891626  0.94670568  0.04802888    -0.15600
H1268       H  0.19417225  0.95576965  0.98037985     0.09600
H1269       H  0.09773411  0.97113696  0.86686471     0.07400
H1270       H  0.13870730  0.96730757  0.83629159     0.08600
H1271       H  0.11173132  0.00706023  0.82875852     0.07700
H1272       H  0.20495223  0.52193606  0.99242066     0.02500
H1273       H  0.17821336  0.56141312  0.99721915     0.03000
H1274       H  0.21727685  0.56133213  0.96192341     0.06500
H1275       H  0.07837485  0.54454259  0.04994597     0.05500
H1276       H  0.07907629  0.01223775  0.00731497    -0.00300
H1277       H  0.09922731  0.55719313  0.99930523     0.01200
H1278       H  0.22767137  0.91924046  0.03816527     0.04900
H1279       H  0.23763115  0.94469074  0.07986630     0.06800
H1280       H  0.24950198  0.96228615  0.02747283     0.07700
C1281       C  0.30514894  0.60338352  0.41914516    -0.21900
C1282       C  0.30334186  0.57396788  0.44962729     0.10000
C1283       C  0.29856144  0.53934125  0.43660681     0.10400
C1284       C  0.30030328  0.53474390  0.39430984    -0.16800
C1285       C  0.29936857  0.56390314  0.36359942    -0.27300
C1286       C  0.30141093  0.59891033  0.37679671     0.18800
C1287       C  0.30462157  0.57966768  0.49478145     0.12700
C1288       C  0.28853076  0.50676306  0.46619989    -0.11600
H1289       H  0.29820971  0.50763574  0.38549166     0.13000
C1290       C  0.29720830  0.63158303  0.34728299    -0.22400
H1291       H  0.30763768  0.63014332  0.42882927     0.08700
C1292       C  0.32858216  0.56089198  0.52068550     0.05000
C1293       C  0.32369962  0.56115550  0.56374823    -0.19700
C1294       C  0.29603698  0.58018436  0.58238436    -0.12000
C1295       C  0.27388346  0.60128538  0.55677226     0.13700
C1296       C  0.27855880  0.60099799  0.51336016    -0.22400
C1297       C  0.35832478  0.53833015  0.50442392    -0.05500
H1298       H  0.34055793  0.54460779  0.58314843     0.15200
C1299       C  0.24365545  0.62201086  0.57534628    -0.15600
H1300       H  0.26017257  0.61555417  0.49404690     0.09600
H1301       H  0.29922441  0.65668920  0.36268173     0.07400
H1302       H  0.27064929  0.63079172  0.33433646     0.08600
H1303       H  0.31840603  0.63249897  0.32190912     0.07700
H1304       H  0.28374432  0.51289258  0.49866813     0.02500
H1305       H  0.30983816  0.48660367  0.46443506     0.03000
H1306       H  0.26325807  0.49471706  0.45751756     0.06500
H1307       H  0.38410320  0.54720942  0.51506113     0.05500
H1308       H  0.36067050  0.54010014  0.47044084    -0.00300
H1309       H  0.35347595  0.50983139  0.51631741     0.01200
H1310       H  0.22850790  0.63673856  0.55123146     0.04900
H1311       H  0.25442078  0.64178624  0.59485121     0.06800
H1312       H  0.22479817  0.60338397  0.59469120     0.07700
C1313       C  0.47620201  0.56507261  0.49093133    -0.21900
C1314       C  0.45237275  0.58138889  0.46406013     0.10000
C1315       C  0.42674892  0.60505337  0.47927779     0.10400
C1316       C  0.42493261  0.61096811  0.52114999    -0.16800
C1317       C  0.44768999  0.59327714  0.54840670    -0.27300
C1318       C  0.47394399  0.57029775  0.53311757     0.18800
C1319       C  0.45467930  0.57450667  0.41979936     0.12700
C1320       C  0.40077441  0.62342884  0.45151274    -0.11600
H1321       H  0.40432375  0.62804608  0.53317105     0.13000
C1322       C  0.49898518  0.55006821  0.56057205    -0.22400
H1323       H  0.49595497  0.54740884  0.47914675     0.08700
C1324       C  0.48068495  0.59197980  0.39165893     0.05000
C1325       C  0.47701447  0.59181408  0.34925694    -0.19700
C1326       C  0.44619812  0.57745188  0.33414932    -0.12000
C1327       C  0.42111489  0.55831269  0.36236120     0.13700
C1328       C  0.42680095  0.55544464  0.40467843    -0.22400
C1329       C  0.51069222  0.61333664  0.40604605    -0.05500
H1330       H  0.49685660  0.60600256  0.32783832     0.15200
C1331       C  0.38632482  0.54499782  0.34906855    -0.15600
H1332       H  0.40744821  0.54130753  0.42639219     0.09600
H1333       H  0.52699154  0.55629452  0.54873228     0.07400
H1334       H  0.49412603  0.52084070  0.56037992     0.08600
H1335       H  0.49578559  0.55695145  0.59295709     0.07700
H1336       H  0.38285117  0.60337853  0.44016066     0.02500
H1337       H  0.41587675  0.63826646  0.42475519     0.03000
H1338       H  0.38382406  0.64258860  0.46773393     0.06500
H1339       H  0.52752510  0.62631166  0.37941089     0.05500
H1340       H  0.52760509  0.59565385  0.42527385    -0.00300
H1341       H  0.49985729  0.63461582  0.42457424     0.01200
H1342       H  0.39100547  0.52742075  0.32386740     0.04900
H1343       H  0.37058484  0.56829600  0.33784027     0.06800
H1344       H  0.37061961  0.52959512  0.37499219     0.07700
C1345       C  0.39740200  0.68474491  0.89544888    -0.21900
C1346       C  0.36756192  0.67104607  0.91986970     0.10000
C1347       C  0.33982040  0.65429711  0.90096844     0.10400
C1348       C  0.34249656  0.65229069  0.85791520    -0.16800
C1349       C  0.37255706  0.66610183  0.83316001    -0.27300
C1350       C  0.40092045  0.68182809  0.85282535     0.18800
C1351       C  0.36900849  0.66994810  0.96546574     0.12700
C1352       C  0.30723280  0.63796222  0.92526899    -0.11600
H1353       H  0.32090010  0.63977212  0.84370082     0.13000
C1354       C  0.43584378  0.69463549  0.83005195    -0.22400
H1355       H  0.41855563  0.69717355  0.91022729     0.08700
C1356       C  0.38624324  0.64166612  0.98718139     0.05000
C1357       C  0.38501882  0.63929406  0.03032066    -0.19700
C1358       C  0.36889681  0.66593617  0.05230218    -0.12000
C1359       C  0.35483931  0.69633981  0.03046449     0.13700
C1360       C  0.35472221  0.69778384  0.98709782    -0.22400
C1361       C  0.40678015  0.61466184  0.96441574    -0.05500
H1362       H  0.39699838  0.61663688  0.04703604     0.15200
C1363       C  0.33994622  0.72737404  0.05192251    -0.15600
H1364       H  0.34379587  0.72072969  0.96999486     0.09600
H1365       H  0.44751203  0.67280529  0.81300228     0.07400
H1366       H  0.45577738  0.70257332  0.85134035     0.08600
H1367       H  0.43171444  0.71846586  0.80819971     0.07700
H1368       H  0.30675034  0.64182144  0.95860262     0.02500
H1369       H  0.30597229  0.60885538  0.92188369     0.03000
H1370       H  0.28314090  0.65037269  0.91274938     0.06500
H1371       H  0.41837212  0.59365299  0.98557835     0.05500
H1372       H  0.42873918  0.62866420  0.94481080    -0.00300
H1373       H  0.38902283  0.60203736  0.94411416     0.01200
H1374       H  0.35525805  0.75210566  0.04002938     0.04900
H1375       H  0.34161877  0.72376484  0.08583805     0.06800
H1376       H  0.31146572  0.73089848  0.04579042     0.07700
C1377       C  0.33942490  0.56142946  0.00850956    -0.21900
C1378       C  0.36076071  0.53848462  0.98596714     0.10000
C1379       C  0.38839027  0.01488381  0.00522776     0.10400
C1380       C  0.38598415  0.01265077  0.04911104    -0.16800
C1381       C  0.35543628  0.53205416  0.07473702    -0.27300
C1382       C  0.33459294  0.55703867  0.05177925     0.18800
C1383       C  0.35544875  0.53793337  0.94006265     0.12700
C1384       C  0.41192463  0.98882347  0.98408666    -0.11600
H1385       H  0.40077710  0.99225161  0.06617457     0.13000
C1386       C  0.30489930  0.57796326  0.07106793    -0.22400
H1387       H  0.32432669  0.58178997  0.99198405     0.08700
C1388       C  0.32058720  0.53627212  0.92574960     0.05000
C1389       C  0.31608288  0.53840787  0.88316081    -0.19700
C1390       C  0.34468875  0.53357249  0.85401824    -0.12000
C1391       C  0.37970422  0.53486792  0.86780046     0.13700
C1392       C  0.38450943  0.53937883  0.90986711    -0.22400
C1393       C  0.28779259  0.52780582  0.95479456    -0.05500
H1394       H  0.28911035  0.53760535  0.87319651     0.15200
C1395       C  0.41209571  0.52943716  0.83934922    -0.15600
H1396       H  0.41126602  0.54305768  0.91904605     0.09600
H1397       H  0.27907584  0.56964516  0.05987188     0.07400
H1398       H  0.30917764  0.60699183  0.06165958     0.08600
H1399       H  0.30270041  0.57394965  0.10505486     0.07700
H1400       H  0.43406813  0.00326504  0.96507713     0.02500
H1401       H  0.39601083  0.97286632  0.96458352     0.03000
H1402       H  0.42457249  0.97002878  0.00676779     0.06500
H1403       H  0.26456193  0.52014945  0.93793987     0.05500
H1404       H  0.27971219  0.55122957  0.97128659    -0.00300
H1405       H  0.29807079  0.01017695  0.97594746     0.01200
H1406       H  0.41525321  0.55194952  0.81484955     0.04900
H1407       H  0.40961950  0.50372883  0.82532846     0.06800
H1408       H  0.44244287  0.02734111  0.85251141     0.07700
C1409       C  0.44807518  0.69933847  0.45603839    -0.21900
C1410       C  0.41779083  0.71723105  0.44254239     0.10000
C1411       C  0.39521640  0.73357379  0.47152558     0.10400
C1412       C  0.40564753  0.73524685  0.51209019    -0.16800
C1413       C  0.43837665  0.72117850  0.52402395    -0.27300
C1414       C  0.45836073  0.70070978  0.49646713     0.18800
C1415       C  0.41600883  0.72635001  0.39721002     0.12700
C1416       C  0.36159592  0.75157791  0.45859348    -0.11600
H1417       H  0.39022608  0.75107624  0.53290377     0.13000
C1418       C  0.49211727  0.68222991  0.50805924    -0.22400
H1419       H  0.46540392  0.68669304  0.43391008     0.08700
C1420       C  0.43391437  0.75742496  0.37816853     0.05000
C1421       C  0.43622361  0.76383425  0.33509059    -0.19700
C1422       C  0.42543777  0.73766417  0.30986007    -0.12000
C1423       C  0.40449587  0.70820651  0.32875815     0.13700
C1424       C  0.39944986  0.70322694  0.37238604    -0.22400
C1425       C  0.45370684  0.78217785  0.40303689    -0.05500
H1426       H  0.45113114  0.78728764  0.32093739     0.15200
C1427       C  0.38843679  0.68149234  0.30352113    -0.15600
H1428       H  0.38408821  0.68035113  0.38701258     0.09600
H1429       H  0.99252717  0.65938665  0.49843636     0.07400
H1430       H  0.49660830  0.68336813  0.54118695     0.08600
H1431       H  0.51533068  0.69482878  0.48892283     0.07700
H1432       H  0.34359158  0.73156864  0.44717021     0.02500
H1433       H  0.36804454  0.77321015  0.43354819     0.03000
H1434       H  0.34715096  0.76355629  0.48469034     0.06500
H1435       H  0.46520099  0.80575498  0.38337756     0.05500
H1436       H  0.47591873  0.76768282  0.41760000    -0.00300
H1437       H  0.43558610  0.79193462  0.42766646     0.01200
H1438       H  0.40967000  0.66816498  0.28595550     0.04900
H1439       H  0.37030212  0.69522067  0.28188340     0.06800
H1440       H  0.37307144  0.66028394  0.32340173     0.07700
C1441       C  0.45261905  0.88363997  0.48269059    -0.21900
C1442       C  0.46750628  0.91333559  0.45788548     0.10000
C1443       C  0.47479927  0.94509753  0.47636960     0.10400
C1444       C  0.46725876  0.94613503  0.51910192    -0.16800
C1445       C  0.45252901  0.91615635  0.54360950    -0.27300
C1446       C  0.44435168  0.88481548  0.52488855     0.18800
C1447       C  0.46763046  0.91223454  0.41242175     0.12700
C1448       C  0.48991758  0.97836887  0.45173391    -0.11600
H1449       H  0.47259296  0.97054306  0.53324635     0.13000
C1450       C  0.42473127  0.85281855  0.54756420    -0.22400
H1451       H  0.44462634  0.86009297  0.46847644     0.08700
C1452       C  0.48467316  0.88489391  0.39177832     0.05000
C1453       C  0.47735359  0.88066635  0.35082177    -0.19700
C1454       C  0.45249668  0.90229081  0.33014956    -0.12000
C1455       C  0.43616003  0.93028184  0.35081666     0.13700
C1456       C  0.44465282  0.93528142  0.39110510    -0.22400
C1457       C  0.51085593  0.86026979  0.41249164    -0.05500
H1458       H  0.49052065  0.85954205  0.33533115     0.15200
C1459       C  0.40888381  0.95458068  0.33187240    -0.15600
H1460       H  0.43129887  0.95595631  0.40725240     0.09600
H1461       H  0.44244810  0.82952009  0.54807710     0.07400
H1462       H  0.40118058  0.84585499  0.53101244     0.08600
H1463       H  0.41491487  0.85736424  0.57940599     0.07700
H1464       H  0.46926389  0.99927418  0.45137194     0.02500
H1465       H  0.49850872  0.97394508  0.41941966     0.03000
H1466       H  0.51369172  0.98791344  0.46620171     0.06500
H1467       H  0.51972490  0.83924824  0.39262127     0.05500
H1468       H  0.49901350  0.84589001  0.44143521    -0.00300
H1469       H  0.53450259  0.87603371  0.41906337     0.01200
H1470       H  0.38535036  0.93907397  0.32426619     0.04900
H1471       H  0.42108875  0.97018983  0.30370282     0.06800
H1472       H  0.39849201  0.97329163  0.35390678     0.07700
C1473       C  0.36861333  0.80765713  0.90306988    -0.21900
C1474       C  0.35881999  0.83993907  0.91878163     0.10000
C1475       C  0.34956813  0.86920165  0.89125452     0.10400
C1476       C  0.35183610  0.86582950  0.84845969    -0.16800
C1477       C  0.36360027  0.83402658  0.83254174    -0.27300
C1478       C  0.37040355  0.80411693  0.86055541     0.18800
C1479       C  0.36039040  0.84286660  0.96384450     0.12700
C1480       C  0.33909845  0.90452324  0.90679637    -0.11600
H1481       H  0.34683397  0.88892400  0.82729177     0.13000
C1482       C  0.37944918  0.76789301  0.84692639    -0.22400
H1483       H  0.37561734  0.78511766  0.92413888     0.08700
C1484       C  0.33639270  0.82388390  0.99354756     0.05000
C1485       C  0.33979765  0.82693195  0.03583662    -0.19700
C1486       C  0.36689868  0.84840614  0.04874331    -0.12000
C1487       C  0.39038489  0.86788248  0.01905538     0.13700
C1488       C  0.38722444  0.86436171  0.97713317    -0.22400
C1489       C  0.30698832  0.80094200  0.98052152    -0.05500
H1490       H  0.32121520  0.81278151  0.05880073     0.15200
C1491       C  0.41799605  0.89340189  0.03160782    -0.15600
H1492       H  0.40563470  0.87871384  0.95461389     0.09600
H1493       H  0.36033782  0.74761638  0.86315601     0.07400
H1494       H  0.40693700  0.76118525  0.85515697     0.08600
H1495       H  0.37753643  0.76621716  0.81341384     0.07700
H1496       H  0.36193097  0.91673051  0.92061416     0.02500
H1497       H  0.31647878  0.90053503  0.93055174     0.03000
H1498       H  0.33094202  0.92375539  0.88146959     0.06500
H1499       H  0.29072261  0.78815020  0.00751052     0.05500
H1500       H  0.31843317  0.77943919  0.96289885    -0.00300
H1501       H  0.28935067  0.81739967  0.96083674     0.01200
H1502       H  0.43443116  0.90627041  0.00451871     0.04900
H1503       H  0.43602814  0.87876336  0.05238940     0.06800
H1504       H  0.40461951  0.91469086  0.04819963     0.07700
C1505       C  0.29092314  0.86972667  0.43258920    -0.21900
C1506       C  0.32665636  0.86349843  0.44005314     0.10000
C1507       C  0.35190734  0.86380947  0.40570638     0.10400
C1508       C  0.34245205  0.87779633  0.36627167    -0.16800
C1509       C  0.30730714  0.88837583  0.35985197    -0.27300
C1510       C  0.28067828  0.88012028  0.39282517     0.18800
C1511       C  0.33636014  0.86317628  0.48392282     0.12700
C1512       C  0.38843224  0.84887587  0.40983662    -0.11600
H1513       H  0.36286920  0.88123108  0.34113852     0.13000
C1514       C  0.24113495  0.88297902  0.38768749    -0.22400
H1515       H  0.27083787  0.86775975  0.45830823     0.08700
C1516       C  0.35323864  0.89354783  0.49736950     0.05000
C1517       C  0.35061090  0.89912723  0.53955445    -0.19700
C1518       C  0.32753354  0.87776389  0.56793230    -0.12000
C1519       C  0.31535472  0.84475077  0.55576134     0.13700
C1520       C  0.32000635  0.83770797  0.51396716    -0.22400
C1521       C  0.37032350  0.92235616  0.46690919    -0.05500
H1522       H  0.36034139  0.92437638  0.54863063     0.15200
C1523       C  0.29355630  0.81860609  0.58533792    -0.15600
H1524       H  0.30722328  0.81416841  0.50414645     0.09600
H1525       H  0.23018020  0.90573009  0.40383802     0.07400
H1526       H  0.22732293  0.85784726  0.40133343     0.08600
H1527       H  0.23491343  0.88629464  0.35489065     0.07700
H1528       H  0.39237768  0.82731921  0.38889939     0.02500
H1529       H  0.39207814  0.83746064  0.44184052     0.03000
H1530       H  0.40880403  0.86997904  0.40073462     0.06500
H1531       H  0.38069102  0.94524177  0.48221246     0.05500
H1532       H  0.35078887  0.93253099  0.44484706    -0.00300
H1533       H  0.39287010  0.91099798  0.44943187     0.01200
H1534       H  0.26627638  0.81584468  0.57466022     0.04900
H1535       H  0.29135438  0.82730778  0.61702741     0.06800
H1536       H  0.30648959  0.79204702  0.58667610     0.07700
C1537       C  0.15649759  0.92027359  0.48361537    -0.21900
C1538       C  0.12230476  0.92069445  0.46888578     0.10000
C1539       C  0.09223937  0.92202175  0.49733079     0.10400
C1540       C  0.09706163  0.92347605  0.53945286    -0.16800
C1541       C  0.13124874  0.92454298  0.55402954    -0.27300
C1542       C  0.16141055  0.92235049  0.52564520     0.18800
C1543       C  0.11877427  0.91628729  0.42441362     0.12700
C1544       C  0.05465967  0.92206330  0.48440004    -0.11600
H1545       H  0.07383992  0.92440074  0.56103406     0.13000
C1546       C  0.19883052  0.92081448  0.53940448    -0.22400
H1547       H  0.17948095  0.91799868  0.46202588     0.08700
C1548       C  0.13215103  0.94194346  0.39235013     0.05000
C1549       C  0.12819835  0.93568472  0.35117599    -0.19700
C1550       C  0.11255245  0.90378867  0.34050839    -0.12000
C1551       C  0.10046613  0.87742266  0.37282632     0.13700
C1552       C  0.10327282  0.88438639  0.41412867    -0.22400
C1553       C  0.15119816  0.97602922  0.40002079    -0.05500
H1554       H  0.13824530  0.95591919  0.32711311     0.15200
C1555       C  0.08622269  0.84115401  0.36467610    -0.15600
H1556       H  0.09415839  0.86429624  0.43881314     0.09600
H1557       H  0.20566642  0.94671989  0.55091665     0.07400
H1558       H  0.21877680  0.91635090  0.51366553     0.08600
H1559       H  0.20096451  0.89855377  0.56404049     0.07700
H1560       H  0.04186279  0.89540793  0.49358581     0.02500
H1561       H  0.05323345  0.92891426  0.45074337     0.03000
H1562       H  0.03950395  0.94240398  0.50057804     0.06500
H1563       H  0.13775263  0.99933674  0.38476187     0.05500
H1564       H  0.17922432  0.97569533  0.38665732    -0.00300
H1565       H  0.15157489  0.97987844  0.43317910     0.01200
H1566       H  0.07892026  0.82395890  0.39371222     0.04900
H1567       H  0.06201653  0.84416896  0.34708644     0.06800
H1568       H  0.10689393  0.82691457  0.34698563     0.07700
C1569       C  0.16586653  0.81774215  0.91125925    -0.21900
C1570       C  0.19273809  0.83829227  0.92557851     0.10000
C1571       C  0.21628622  0.85916592  0.89725320     0.10400
C1572       C  0.21301730  0.85816166  0.85478237    -0.16800
C1573       C  0.18529288  0.83845066  0.83987076    -0.27300
C1574       C  0.16078528  0.81846203  0.86903567     0.18800
C1575       C  0.19245122  0.84111412  0.97043048     0.12700
C1576       C  0.24405111  0.88340138  0.91187993    -0.11600
H1577       H  0.23147751  0.87405095  0.83324276     0.13000
C1578       C  0.12803136  0.79913742  0.85713989    -0.22400
H1579       H  0.14743241  0.80264610  0.93363667     0.08700
C1580       C  0.17238254  0.86787470  0.98859232     0.05000
C1581       C  0.17348898  0.87077700  0.03094472    -0.19700
C1582       C  0.19335140  0.84690756  0.05551024    -0.12000
C1583       C  0.21097189  0.81830998  0.03809046     0.13700
C1584       C  0.21069221  0.81590250  0.99534938    -0.22400
C1585       C  0.14916618  0.89272000  0.96338351    -0.05500
H1586       H  0.15862522  0.89163100  0.04509998     0.15200
C1587       C  0.22993371  0.79067977  0.06467957    -0.15600
H1588       H  0.22456572  0.79441200  0.98135368     0.09600
H1589       H  0.11209716  0.78597808  0.88447986     0.07400
H1590       H  0.13567963  0.77780856  0.83712961     0.08600
H1591       H  0.11026590  0.81849177  0.84111552     0.07700
H1592       H  0.26197827  0.86733074  0.93155407     0.02500
H1593       H  0.23099998  0.90378378  0.93018646     0.03000
H1594       H  0.26047712  0.89774651  0.88567683     0.06500
H1595       H  0.13435632  0.91130114  0.98270893     0.05500
H1596       H  0.12914901  0.87682703  0.94891905    -0.00300
H1597       H  0.16572060  0.90892144  0.93877954     0.01200
H1598       H  0.24102775  0.76927026  0.04660296     0.04900
H1599       H  0.21089878  0.77770465  0.08929165     0.06800
H1600       H  0.25207722  0.80365081  0.07903995     0.07700
C1601       C  0.51418261  0.90387104  0.96772402    -0.21900
C1602       C  0.97778751  0.88251168  0.94348643     0.10000
C1603       C  0.97186883  0.84636257  0.96010154     0.10400
C1604       C  0.97531691  0.83693914  0.00236026    -0.16800
C1605       C  0.98814203  0.86156876  0.02801518    -0.27300
C1606       C  0.51705859  0.89195808  0.00982351     0.18800
C1607       C  0.98321118  0.89205977  0.89769538     0.12700
C1608       C  0.96611968  0.81594528  0.93385630    -0.11600
H1609       H  0.97372210  0.80879856  0.01376300     0.13000
C1610       C  0.53769271  0.91464421  0.03611020    -0.22400
H1611       H  0.52698107  0.92891596  0.95496750     0.08700
C1612       C  0.47537831  0.89696603  0.86869305     0.05000
C1613       C  0.47991420  0.88857126  0.82736929    -0.19700
C1614       C  0.99895569  0.88263195  0.81327749    -0.12000
C1615       C  0.02626341  0.89344609  0.83771123     0.13700
C1616       C  0.01825682  0.89703668  0.87996270    -0.22400
C1617       C  0.44039359  0.91174860  0.88355977    -0.05500
H1618       H  0.45682128  0.88761424  0.80923911     0.15200
C1619       C  0.06448459  0.89739287  0.82012633    -0.15600
H1620       H  0.03979695  0.90060680  0.89979382     0.09600
H1621       H  0.52025009  0.92125158  0.06315596     0.07400
H1622       H  0.54731271  0.94023778  0.01875332     0.08600
H1623       H  0.56135015  0.89997645  0.04691733     0.07700
H1624       H  0.98872969  0.79716579  0.93627368     0.02500
H1625       H  0.96418202  0.82450161  0.90075881     0.03000
H1626       H  0.94120166  0.80116128  0.94549062     0.06500
H1627       H  0.41885920  0.89175363  0.88153421     0.05500
H1628       H  0.43467542  0.93639537  0.86365746    -0.00300
H1629       H  0.44093069  0.91928943  0.91560651     0.01200
H1630       H  0.08245091  0.90595413  0.84321078     0.04900
H1631       H  0.06623622  0.91797277  0.79326040     0.06800
H1632       H  0.07439154  0.87164895  0.80995450     0.07700
C1633       C  0.10680132  0.72053023  0.47173068    -0.21900
C1634       C  0.13736706  0.71405931  0.44623328     0.10000
C1635       C  0.16948304  0.70504269  0.46458661     0.10400
C1636       C  0.17113502  0.70668922  0.50735004    -0.16800
C1637       C  0.14215135  0.71922519  0.53133430    -0.27300
C1638       C  0.10874495  0.72280542  0.51415285     0.18800
C1639       C  0.13464394  0.71859658  0.40068162     0.12700
C1640       C  0.20248054  0.69557678  0.43912092    -0.11600
H1641       H  0.19676351  0.70389815  0.52065932     0.13000
C1642       C  0.07646198  0.73467548  0.53923049    -0.22400
H1643       H  0.08189105  0.72661129  0.45783908     0.08700
C1644       C  0.10895230  0.69900442  0.38211520     0.05000
C1645       C  0.10175407  0.70873060  0.34128804    -0.19700
C1646       C  0.11849193  0.73865010  0.31819346    -0.12000
C1647       C  0.14650937  0.75644598  0.33523525     0.13700
C1648       C  0.15385880  0.74660788  0.37662822    -0.22400
C1649       C  0.08702104  0.66896393  0.40527845    -0.05500
H1650       H  0.08156606  0.69336457  0.32798351     0.15200
C1651       C  0.16787644  0.78626625  0.31050271    -0.15600
H1652       H  0.17322915  0.76218532  0.39089439     0.09600
H1653       H  0.05262493  0.73659273  0.52097573     0.07400
H1654       H  0.08135638  0.76156873  0.54962899     0.08600
H1655       H  0.07038361  0.71522450  0.56665172     0.07700
H1656       H  0.21199847  0.71881410  0.41750589     0.02500
H1657       H  0.19653306  0.67281495  0.42117631     0.03000
H1658       H  0.22462908  0.68770885  0.45880995     0.06500
H1659       H  0.08673031  0.64585460  0.38655451     0.05500
H1660       H  0.05928353  0.67807837  0.41115337    -0.00300
H1661       H  0.09783415  0.65975233  0.43502061     0.01200
H1662       H  0.15019310  0.80830318  0.30015609     0.04900
H1663       H  0.18170670  0.77580669  0.28299897     0.06800
H1664       H  0.18845272  0.79754801  0.32879662     0.07700
N1665       N  0.62141718  0.25270037  0.24117354    -0.02900
C1666       C  0.60303817  0.24634234  0.27891547    -0.00300
C1667       C  0.56768030  0.23856124  0.27370756    -0.23200
C1668       C  0.56651053  0.23193092  0.23344387    -0.23400
C1669       C  0.60203205  0.23127580  0.21856217    -0.00400
H1670       H  0.54684256  0.23120348  0.29765278     0.13300
H1671       H  0.54469244  0.21709915  0.22247711     0.13400
N1672       N  0.64389433  0.24288634  0.59783524    -0.02900
C1673       C  0.65699297  0.24021780  0.55822818    -0.00300
C1674       C  0.66797770  0.27339112  0.53923032    -0.23200
C1675       C  0.66014763  0.29769270  0.56674359    -0.23400
C1676       C  0.64542890  0.27868731  0.60225614    -0.00400
H1677       H  0.67710128  0.27968054  0.50710655     0.13300
H1678       H  0.66490413  0.32635936  0.56145924     0.13400
N1679       N  0.51343395  0.35535069  0.74143936    -0.02900
C1680       C  0.50554934  0.35204032  0.78339045    -0.00300
C1681       C  0.51326263  0.31839064  0.80088614    -0.23200
C1682       C  0.53408116  0.30361998  0.77169166    -0.23400
C1683       C  0.53840403  0.32880672  0.73769818    -0.00400
H1684       H  0.51175549  0.30948227  0.83353000     0.13300
H1685       H  0.55166001  0.28182289  0.77901461     0.13400
N1686       N  0.51811711  0.35249520  0.09753834    -0.02900
C1687       C  0.51634969  0.34728427  0.05653336    -0.00300
C1688       C  0.54419678  0.32638203  0.04350668    -0.23200
C1689       C  0.56454914  0.31915352  0.07607975    -0.23400
C1690       C  0.54907613  0.33589481  0.10879719    -0.00400
H1691       H  0.55075889  0.31967180  0.01230417     0.13300
H1692       H  0.58983986  0.30551082  0.07488627     0.13400
O1693       O  0.65163809  0.31580471  0.78126525    -0.80400
O1694       O  0.61155013  0.39979587  0.62371171    -0.65000
O1695       O  0.66361098  0.34393745  0.70036504    -1.11600
C1696       C  0.67807185  0.45478009  0.75704132     1.06500
O1697       O  0.65609144  0.43985298  0.61569532    -0.78300
O1698       O  0.70881099  0.44653707  0.66865434    -0.65800
Ni1699     Ni  0.64811661  0.29976198  0.72711214     1.34900
C1700       C  0.72962762  0.42006221  0.67318445     0.85300
O1701       O  0.62793224  0.32974811  0.63309337    -0.78800
O1702       O  0.64606162  0.28225404  0.67401262    -0.89100
C1703       C  0.63220169  0.42134888  0.60048491     0.84800
O1704       O  0.59774956  0.30834265  0.73015820    -0.67300
O1705       O  0.66165242  0.46871931  0.72654427    -0.86600
C1706       C  0.57659258  0.33322738  0.71880186     0.85700
C1707       C  0.63795868  0.29723843  0.63923187     1.07200
H1708       H  0.62262450  0.41160969  0.71361707     0.39000
O1709       O  0.64409862  0.40785282  0.69659582    -1.09200
O1710       O  0.71968187  0.39103078  0.69508393    -0.65900
Ni1711     Ni  0.67532391  0.38198262  0.73125304     1.26300
O1712       O  0.58772441  0.36050082  0.69467609    -0.66100
O1713       O  0.68688629  0.42190337  0.76084840    -0.78400
C1714       C  0.67849740  0.33133688  0.79442929     0.85100
O1715       O  0.69949539  0.35134915  0.76945887    -0.65600
Ni1716     Ni  0.65837932  0.45333435  0.67205258     1.27400
Ni1717     Ni  0.63456219  0.36990175  0.66388316     1.26100
H1718       H  0.68501933  0.33854937  0.68401369     0.39600
O1719       O  0.70582716  0.37932204  0.10741043    -0.80400
O1720       O  0.62924999  0.41498745  0.26969939    -0.65000
O1721       O  0.68521958  0.36714585  0.19169797    -1.11600
C1722       C  0.57106671  0.34167554  0.14462164     1.06500
O1723       O  0.59568832  0.36606852  0.28509170    -0.78300
O1724       O  0.59377103  0.30929290  0.23812663    -0.65800
Ni1725     Ni  0.72427836  0.38928059  0.15925270     1.34900
C1726       C  0.62039541  0.29102697  0.22564738     0.85300
O1727       O  0.70008650  0.40811103  0.25593825    -0.78800
O1728       O  0.74530966  0.40009232  0.20885890    -0.89100
C1729       C  0.61179174  0.39353749  0.29633132     0.84800
O1730       O  0.70644547  0.43682616  0.15168450    -0.67300
O1731       O  0.55733578  0.35072537  0.17921696    -0.86600
C1732       C  0.68080798  0.45460470  0.16696632     0.85700
C1733       C  0.73337362  0.40793242  0.24446056     1.07200
H1734       H  0.61080264  0.39918161  0.18503175     0.39000
O1735       O  0.61916979  0.37860397  0.20153646    -1.09200
O1736       O  0.64425975  0.30502061  0.19894692    -0.65900
Ni1737     Ni  0.64566431  0.35116224  0.16461493     1.26300
O1738       O  0.65934667  0.44069392  0.19636486    -0.66100
O1739       O  0.60462896  0.33747098  0.13774477    -0.78400
C1740       C  0.69172033  0.35033658  0.09801886     0.85100
O1741       O  0.67487000  0.32890496  0.12504133    -0.65600
Ni1742     Ni  0.57803642  0.35816228  0.23142077     1.27400
Ni1743     Ni  0.65865272  0.39397186  0.22941573     1.26100
H1744       H  0.69466520  0.34676141  0.20754818     0.39600
N1745       N  0.78713647  0.39641755  0.28611179    -0.02900
C1746       C  0.79388342  0.40566600  0.32442561    -0.00300
C1747       C  0.77496225  0.43626843  0.33233809    -0.23200
C1748       C  0.75194087  0.44242409  0.30178401    -0.23400
C1749       C  0.75912573  0.41710278  0.27453848    -0.00400
H1750       H  0.77259494  0.44803686  0.36148841     0.13300
H1751       H  0.72983294  0.46071666  0.30184752     0.13400
N1752       N  0.79074372  0.39996343  0.64088045    -0.02900
C1753       C  0.79513014  0.40230468  0.59850768    -0.00300
C1754       C  0.77965304  0.43216573  0.58022730    -0.23200
C1755       C  0.76150461  0.44734713  0.61079733    -0.23400
C1756       C  0.76440420  0.42487404  0.64678379    -0.00400
H1757       H  0.77930031  0.44030460  0.54751026     0.13300
H1758       H  0.74226299  0.46825096  0.60515988     0.13400
O1759       O  0.90646610  0.43485513  0.60277296    -0.80400
O1760       O  0.84962148  0.35098660  0.76363822    -0.65000
O1761       O  0.90751434  0.41086330  0.68567237    -1.11600
C1762       C  0.94529618  0.29737000  0.64188334     1.06500
O1763       O  0.89806244  0.32011301  0.77896934    -0.78300
O1764       O  0.96198157  0.32147790  0.73396232    -0.65800
Ni1765     Ni  0.88984906  0.45151406  0.65503538     1.34900
C1766       C  0.98044179  0.34993099  0.72200396     0.85300
O1767       O  0.85633134  0.42288973  0.74860881    -0.78800
O1768       O  0.87282790  0.47141149  0.70549040    -0.89100
C1769       C  0.86774599  0.33297790  0.78963896     0.84800
O1770       O  0.84275969  0.43329543  0.64758962    -0.67300
O1771       O  0.93134620  0.28311698  0.67643199    -0.86600
C1772       C  0.82430514  0.40507490  0.66022479     0.85700
C1773       C  0.85839510  0.45698237  0.73972435     1.07200
H1774       H  0.87951900  0.33418675  0.67977801     0.39000
O1775       O  0.89722220  0.34364640  0.69621674    -1.09200
O1776       O  0.96975434  0.37325391  0.69443287    -0.65900
Ni1777     Ni  0.92903322  0.37206164  0.65908154     1.26300
O1778       O  0.83505629  0.38179994  0.68782268    -0.66100
O1779       O  0.94910997  0.33138999  0.63367086    -0.78400
C1780       C  0.93557796  0.41985187  0.59198076     0.85100
O1781       O  0.95464927  0.40330936  0.61810710    -0.65600
Ni1782     Ni  0.91482242  0.30321134  0.72687378     1.27400
Ni1783     Ni  0.87590025  0.38234708  0.72298627     1.26100
H1784       H  0.92518683  0.42041719  0.70210888     0.39600
O1785       O  0.95850933  0.37335285  0.27526307    -0.80400
O1786       O  0.89358279  0.34467461  0.10714380    -0.65000
O1787       O  0.93227731  0.38714730  0.19639966    -1.11600
C1788       C  0.81511501  0.38801916  0.25550383     1.06500
O1789       O  0.84156418  0.37281973  0.10881944    -0.78300
O1790       O  0.85544460  0.42827998  0.15267502    -0.65800
Ni1791     Ni  0.97082764  0.36171247  0.22023412     1.34900
C1792       C  0.86229448  0.44780238  0.18108799     0.85300
O1793       O  0.95861539  0.37004995  0.11761574    -0.78800
O1794       O  0.99124889  0.34850020  0.16784523    -0.89100
C1795       C  0.86554656  0.35519280  0.09081324     0.84800
O1796       O  0.94152282  0.31915136  0.23103695    -0.67300
O1797       O  0.81004331  0.39566624  0.21754930    -0.86600
C1798       C  0.93536150  0.29978947  0.20226771     0.85700
C1799       C  0.98799166  0.35773180  0.12981817     1.07200
H1800       H  0.86422974  0.33591962  0.19528825     0.39000
O1801       O  0.87017755  0.36070728  0.18642764    -1.09200
O1802       O  0.87479151  0.43353174  0.21412340    -0.65900
Ni1803     Ni  0.88870065  0.38355735  0.23118681     1.26300
O1804       O  0.92592238  0.31451632  0.16805400    -0.66100
O1805       O  0.84518541  0.37693003  0.26632336    -0.78400
C1806       C  0.93616228  0.39346701  0.29225936     0.85100
O1807       O  0.90900715  0.40456213  0.27465674    -0.65600
Ni1808     Ni  0.82961367  0.38366091  0.16428381     1.27400
Ni1809     Ni  0.91384364  0.36465232  0.15138591     1.26100
H1810       H  0.93903437  0.41184993  0.18801455     0.39600
N1811       N  0.93441135  0.23532062  0.23280036    -0.02900
C1812       C  0.95232257  0.23911188  0.26740311    -0.00300
C1813       C  0.98494415  0.25551568  0.25553279    -0.23200
C1814       C  0.98515878  0.26560714  0.21416077    -0.23400
C1815       C  0.94971886  0.26224190  0.20543864    -0.00400
H1816       H  0.00336802  0.26582393  0.27539603     0.13300
H1817       H  0.00427964  0.28515074  0.19881597     0.13400
N1818       N  0.94179506  0.24386338  0.59773223    -0.02900
C1819       C  0.95668213  0.23886888  0.55933794    -0.00300
C1820       C  0.98233500  0.26510001  0.54690796    -0.23200
C1821       C  0.98331506  0.28720987  0.57796685    -0.23400
C1822       C  0.95778351  0.27446341  0.60858499    -0.00400
H1823       H  0.99641292  0.26968392  0.51672789     0.13300
H1824       H  0.99878925  0.31189629  0.57668855     0.13400
N1825       N  0.85785178  0.01023151  0.78554507    -0.02900
C1826       C  0.84325001  0.01100615  0.82541661    -0.00300
C1827       C  0.81400005  0.48532158  0.83195926    -0.23200
C1828       C  0.81719366  0.46355256  0.80101551    -0.23400
C1829       C  0.84206944  0.47935231  0.77168723    -0.00400
H1830       H  0.79871650  0.47871570  0.86111789     0.13300
H1831       H  0.80449810  0.43743398  0.80136298     0.13400
N1832       N  0.86159969  0.01609349  0.15781037    -0.02900
C1833       C  0.84138664  0.01870578  0.12405513    -0.00300
C1834       C  0.81135269  0.49785867  0.12835626    -0.23200
C1835       C  0.81130282  0.48152864  0.16755351    -0.23400
C1836       C  0.84620437  0.48481909  0.17893520    -0.00400
H1837       H  0.79236623  0.49320236  0.10591398     0.13300
H1838       H  0.79249259  0.46019704  0.17906357     0.13400
O1839       O  0.90167985  0.18311393  0.77042326    -0.80400
O1840       O  0.95532009  0.11518936  0.61618661    -0.65000
O1841       O  0.89284642  0.15714244  0.69470646    -1.11600
C1842       C  0.87052640  0.04027184  0.75621609     1.06500
O1843       O  0.91619410  0.07072696  0.61170439    -0.78300
O1844       O  0.85413949  0.08455075  0.65111763    -0.65800
Ni1845     Ni  0.90344956  0.20167112  0.71331491     1.34900
C1846       C  0.82969773  0.09592639  0.67527926     0.85300
O1847       O  0.93582436  0.18311247  0.62264662    -0.78800
O1848       O  0.90619040  0.22365530  0.65741787    -0.89100
C1849       C  0.94181979  0.09131364  0.59636197     0.84800
O1850       O  0.95432112  0.19764336  0.71039931    -0.67300
O1851       O  0.87073788  0.03590879  0.71783773    -0.86600
C1852       C  0.97841832  0.17546640  0.70058526     0.85700
C1853       C  0.92619088  0.21540849  0.62665437     1.07200
H1854       H  0.93670905  0.08542565  0.70329694     0.39000
O1855       O  0.91533570  0.09414953  0.69108848    -1.09200
O1856       O  0.83758595  0.10629719  0.71016087    -0.65900
Ni1857     Ni  0.88503858  0.11491339  0.73243639     1.26300
O1858       O  0.97011129  0.14671382  0.68467394    -0.66100
O1859       O  0.87887469  0.07055997  0.76827317    -0.78400
C1860       C  0.87874111  0.16284749  0.79204871     0.85100
O1861       O  0.86091457  0.13954129  0.77537524    -0.65600
Ni1862     Ni  0.89419607  0.05645001  0.66595776     1.27400
Ni1863     Ni  0.92624148  0.13796141  0.65624904     1.26100
H1864       H  0.87126927  0.16100527  0.68051583     0.42800
O1865       O  0.84425515  0.13063456  0.12201440    -0.80400
O1866       O  0.92169265  0.06925920  0.27318738    -0.65000
O1867       O  0.87100749  0.13249849  0.19991106    -1.11600
C1868       C  0.98710181  0.15413076  0.13321107     1.06500
O1869       O  0.95727137  0.11612372  0.27853386    -0.78300
O1870       O  0.96046744  0.17839597  0.23193243    -0.65800
Ni1871     Ni  0.82756052  0.12062912  0.17958516     1.34900
C1872       C  0.93688944  0.19946998  0.21774238     0.85300
O1873       O  0.85002719  0.08152437  0.27011943    -0.78800
O1874       O  0.80818538  0.11084621  0.23594132    -0.89100
C1875       C  0.94333253  0.08623694  0.29351575     0.84800
O1876       O  0.83650686  0.07086608  0.17358034    -0.67300
O1877       O  0.99684265  0.14548901  0.16936437    -0.86600
C1878       C  0.86265850  0.04965407  0.17828247     0.85700
C1879       C  0.81726044  0.09024454  0.26659931     1.07200
H1880       H  0.94286118  0.09425295  0.18514465     0.39000
O1881       O  0.93478013  0.11401648  0.20021741    -1.09200
O1882       O  0.91698709  0.19035899  0.18998240    -0.65900
Ni1883     Ni  0.91154220  0.14597038  0.16251383     1.26300
O1884       O  0.88815131  0.05705253  0.20083596    -0.66100
O1885       O  0.95411560  0.15655499  0.12574690    -0.78400
C1886       C  0.86371352  0.15621824  0.10387981     0.85100
O1887       O  0.88500330  0.17348754  0.12351594    -0.65600
Ni1888     Ni  0.97550987  0.13075054  0.22338252     1.27400
Ni1889     Ni  0.89362128  0.09764422  0.23548048     1.26100
H1890       H  0.86578003  0.15238298  0.21606722     0.39600
N1891       N  0.78831435  0.07393559  0.29495983    -0.02900
C1892       C  0.78917676  0.05491509  0.33334453    -0.00300
C1893       C  0.75847932  0.03374353  0.34166051    -0.23200
C1894       C  0.73743497  0.04052457  0.31013335    -0.23400
C1895       C  0.75525794  0.06550241  0.28227158    -0.00400
H1896       H  0.74991628  0.01804130  0.37028073     0.13300
H1897       H  0.71052344  0.03004800  0.30908921     0.13400
N1898       N  0.79239461  0.09245614  0.66400462    -0.02900
C1899       C  0.78933513  0.06911500  0.63461140    -0.00300
C1900       C  0.77732958  0.03634330  0.65312929    -0.23200
C1901       C  0.76563633  0.04219380  0.69278424    -0.23400
C1902       C  0.76678001  0.07928457  0.69412197    -0.00400
H1903       H  0.77431035  0.01208978  0.63852364     0.13300
H1904       H  0.74804714  0.02352426  0.71215551     0.13400
N1905       N  0.67200160  0.01396217  0.79656201    -0.02900
C1906       C  0.68049241  0.01902997  0.83572103    -0.00300
C1907       C  0.70092097  0.48521913  0.85360231    -0.23200
C1908       C  0.70716940  0.46357155  0.82239215    -0.23400
C1909       C  0.68684190  0.47661488  0.79080584    -0.00400
H1910       H  0.70823479  0.47892175  0.88498383     0.13300
H1911       H  0.72168022  0.43873238  0.82448670     0.13400
N1912       N  0.67758445  0.49202287  0.15016753    -0.02900
C1913       C  0.68816402  0.49627386  0.10906670    -0.00300
C1914       C  0.70434953  0.99323838  0.08094600    -0.23200
C1915       C  0.72024605  0.01300432  0.10737186    -0.23400
C1916       C  0.69741521  0.01252084  0.14268584    -0.00400
H1917       H  0.71242357  0.99317815  0.04864482     0.13300
H1918       H  0.74188811  0.03174215  0.09803397     0.13400
N1919       N  0.53980602  0.16477064  0.72236527    -0.02900
C1920       C  0.53306166  0.18464884  0.75501227    -0.00300
C1921       C  0.52463803  0.21904122  0.74124548    -0.23200
C1922       C  0.01702577  0.22167847  0.71936993    -0.23400
C1923       C  0.51949387  0.18267709  0.69350721    -0.00400
H1924       H  0.01301102  0.23553564  0.78325314     0.13300
H1925       H  0.00250051  0.24399478  0.70547107     0.13400
N1926       N  0.52104499  0.16379211  0.09088520    -0.02900
C1927       C  0.51595949  0.18245691  0.05357767    -0.00300
C1928       C  0.54460463  0.20587122  0.04267562    -0.23200
C1929       C  0.56974932  0.19836455  0.07027585    -0.23400
C1930       C  0.55558567  0.17150762  0.09869996    -0.00400
H1931       H  0.54962364  0.22198800  0.01346947     0.13300
H1932       H  0.59657860  0.20963693  0.06804632     0.13400
O1933       O  0.65891229  0.07264033  0.61389483    -0.80400
O1934       O  0.68166324  0.13843931  0.78229592    -0.65000
O1935       O  0.64022698  0.09664020  0.69356275    -1.11600
C1936       C  0.63823728  0.21312005  0.62952067     1.06500
O1937       O  0.66061644  0.19370439  0.77375044    -0.78300
O1938       O  0.60022230  0.17421274  0.73627133    -0.65800
Ni1939     Ni  0.66550740  0.05797444  0.67172324     1.34900
C1940       C  0.57880756  0.16187786  0.71197976     0.85300
O1941       O  0.65586059  0.07330513  0.77467847    -0.78800
O1942       O  0.67400442  0.03737834  0.72708095    -0.89100
C1943       C  0.67719965  0.16939502  0.79428554     0.84800
O1944       O  0.71063203  0.08288457  0.66458941    -0.67300
O1945       O  0.62534808  0.21809071  0.66567613    -0.86600
C1946       C  0.72838454  0.09167045  0.69387050     0.85700
C1947       C  0.66591775  0.04273627  0.76478040     1.07200
H1948       H  0.69015329  0.16512155  0.69127879     0.39000
O1949       O  0.66552410  0.15962102  0.70045277    -1.09200
O1950       O  0.59142766  0.15086643  0.67756356    -0.65900
Ni1951     Ni  0.64158267  0.13942381  0.65736559     1.26300
O1952       O  0.71233824  0.10393275  0.72526080    -0.66100
O1953       O  0.64734937  0.18216426  0.62104892    -0.78400
C1954       C  0.63770469  0.09363031  0.59494337     0.85100
O1955       O  0.62113094  0.11747536  0.61352350    -0.65600
Ni1956     Ni  0.64310678  0.20152877  0.71905817     1.27400
Ni1957     Ni  0.66193379  0.11681052  0.73831765     1.26100
H1958       H  0.61586978  0.08914983  0.70198076     0.39600
O1959       O  0.59455453  0.11026388  0.27125590    -0.80400
O1960       O  0.68144786  0.17846926  0.12032206    -0.65000
O1961       O  0.62560336  0.11003456  0.19025645    -1.11600
C1962       C  0.73510741  0.08278229  0.24819154     1.06500
O1963       O  0.72142807  0.13690229  0.10700925    -0.78300
O1964       O  0.71873137  0.07064894  0.14940285    -0.65800
Ni1965     Ni  0.58051393  0.11982426  0.21466327     1.34900
C1966       C  0.69520962  0.04705644  0.16343917     0.85300
O1967       O  0.61121713  0.16242196  0.12708597    -0.78800
O1968       O  0.56453681  0.13108882  0.15962970    -0.89100
C1969       C  0.70289570  0.16398972  0.09527235     0.84800
O1970       O  0.58819195  0.16968445  0.21784554    -0.67300
O1971       O  0.75031948  0.09542485  0.21350271    -0.86600
C1972       C  0.61249704  0.19374817  0.20883182     0.85700
C1973       C  0.57803079  0.15362575  0.13057384     1.07200
H1974       H  0.69645616  0.14879835  0.20486858     0.39000
O1975       O  0.69027959  0.13001886  0.18817464    -1.09200
O1976       O  0.67146775  0.05291860  0.19217431    -0.65900
Ni1977     Ni  0.66301175  0.09524538  0.22370382     1.26300
O1978       O  0.64258148  0.18642797  0.19102741    -0.66100
O1979       O  0.70145718  0.08225337  0.25577464    -0.78400
C1980       C  0.61353369  0.08494811  0.28664412     0.85100
O1981       O  0.63252056  0.06648413  0.26300000    -0.65600
Ni1982     Ni  0.73398735  0.11679858  0.16157090     1.27400
Ni1983     Ni  0.65167797  0.14666261  0.15659148     1.26100
H1984       H  0.62144724  0.09121457  0.17268737     0.39600
C1985       C  0.64827697  0.10343804  0.39019861    -0.21900
C1986       C  0.62782054  0.07941354  0.41821776     0.10000
C1987       C  0.60380975  0.05553383  0.40244569     0.10400
C1988       C  0.59972165  0.05738575  0.35944550    -0.16800
C1989       C  0.61927722  0.08244217  0.33167341    -0.27300
C1990       C  0.64418626  0.10549284  0.34744901     0.18800
C1991       C  0.63037807  0.08164303  0.46376287     0.12700
C1992       C  0.58332002  0.02735254  0.43086151    -0.11600
H1993       H  0.58104497  0.03936196  0.34751615     0.13000
C1994       C  0.66661209  0.13315493  0.32025728    -0.22400
H1995       H  0.66650258  0.12199873  0.40195330     0.08700
C1996       C  0.66163860  0.07235238  0.48386816     0.05000
C1997       C  0.66288633  0.07629898  0.52638712    -0.19700
C1998       C  0.63416406  0.09051728  0.54962873    -0.12000
C1999       C  0.60334051  0.10092368  0.52895264     0.13700
C2000       C  0.60151899  0.09535153  0.48690346    -0.22400
C2001       C  0.69358525  0.05766168  0.46077064    -0.05500
H2002       H  0.68692162  0.06875888  0.54141922     0.15200
C2003       C  0.57215255  0.11788972  0.55074029    -0.15600
H2004       H  0.57755764  0.10259718  0.47163748     0.09600
H2005       H  0.69532463  0.12710674  0.32272845     0.07400
H2006       H  0.66169075  0.16013321  0.33064532     0.08600
H2007       H  0.66094374  0.13425819  0.28728246     0.07700
H2008       H  0.56566965  0.03994489  0.45384401     0.02500
H2009       H  0.60227740  0.00979456  0.44753342     0.03000
H2010       H  0.56644809  0.01036800  0.41351591     0.06500
H2011       H  0.71524690  0.05042373  0.48142224     0.05500
H2012       H  0.70469043  0.07792249  0.43612583    -0.00300
H2013       H  0.68559788  0.03323442  0.44667808     0.01200
H2014       H  0.54962760  0.12216076  0.53062464     0.04900
H2015       H  0.58041911  0.14439163  0.55982177     0.06800
H2016       H  0.56245568  0.10041098  0.57864901     0.07700
C2017       C  0.70112095  0.21582116  0.88892211    -0.21900
C2018       C  0.70149400  0.18609463  0.91849808     0.10000
C2019       C  0.70199132  0.15157618  0.90468266     0.10400
C2020       C  0.69388088  0.14682724  0.86434919    -0.16800
C2021       C  0.68995679  0.17627906  0.83530480    -0.27300
C2022       C  0.69800025  0.21095101  0.84677315     0.18800
C2023       C  0.69869808  0.18956261  0.96392634     0.12700
C2024       C  0.70990125  0.11911308  0.93263140    -0.11600
H2025       H  0.69067874  0.11977190  0.85573950     0.13000
C2026       C  0.70682688  0.24175650  0.81456832    -0.22400
H2027       H  0.70333615  0.24260192  0.89850728     0.08700
C2028       C  0.72713931  0.20273059  0.98464802     0.05000
C2029       C  0.72770687  0.19509470  0.02788453    -0.19700
C2030       C  0.70076085  0.17401052  0.05054259    -0.12000
C2031       C  0.67241462  0.16081333  0.02959791     0.13700
C2032       C  0.67057609  0.17060286  0.98732382    -0.22400
C2033       C  0.75769359  0.22315149  0.96107789    -0.05500
H2034       H  0.74993649  0.20425543  0.04380196     0.15200
C2035       C  0.64618124  0.13269197  0.04947188    -0.15600
H2036       H  0.64912032  0.15948148  0.97149853     0.09600
H2037       H  0.71625952  0.26561261  0.82873123     0.07400
H2038       H  0.68346828  0.24929999  0.79697667     0.08600
H2039       H  0.72880485  0.23398435  0.79276334     0.07700
H2040       H  0.68436877  0.10450081  0.94095488     0.02500
H2041       H  0.72174406  0.12555855  0.96135102     0.03000
H2042       H  0.72966568  0.10243445  0.91659852     0.06500
H2043       H  0.77724074  0.23064549  0.98250220     0.05500
H2044       H  0.74824894  0.24797500  0.94444537    -0.00300
H2045       H  0.77120927  0.20666735  0.93845801     0.01200
H2046       H  0.61846377  0.14206085  0.04648395     0.04900
H2047       H  0.65006139  0.12486025  0.08238929     0.06800
H2048       H  0.65007600  0.10816648  0.03333898     0.07700
C2049       C  0.54232728  0.18334016  0.87048854    -0.21900
C2050       C  0.51612069  0.15788464  0.88613671     0.10000
C2051       C  0.50024379  0.13659036  0.85830666     0.10400
C2052       C  0.50871995  0.14379923  0.81543193    -0.16800
C2053       C  0.53270273  0.17161814  0.79969683    -0.27300
C2054       C  0.55094022  0.19040551  0.82797877     0.18800
C2055       C  0.50605559  0.15587253  0.93154854     0.12700
C2056       C  0.47408699  0.10656204  0.87254095    -0.11600
H2057       H  0.49481936  0.12903121  0.79411158     0.13000
C2058       C  0.57985290  0.21806922  0.81500582    -0.22400
H2059       H  0.55565636  0.19866558  0.89178859     0.08700
C2060       C  0.52200168  0.13141618  0.96000384     0.05000
C2061       C  0.51941398  0.13684753  0.00249628    -0.19700
C2062       C  0.50166878  0.16669762  0.01726339    -0.12000
C2063       C  0.97908468  0.18798105  0.99687136     0.13700
C2064       C  0.48586145  0.18374415  0.94670975    -0.22400
C2065       C  0.54459982  0.10140991  0.94564911    -0.05500
H2066       H  0.53488949  0.12012292  0.02332271     0.15200
C2067       C  0.95759257  0.21997326  0.00773705    -0.15600
H2068       H  0.97645828  0.20082932  0.93141485     0.09600
H2069       H  0.60522146  0.20864813  0.82751347     0.07400
H2070       H  0.57270507  0.24342842  0.82829535     0.08600
H2071       H  0.58458924  0.22361957  0.78116839     0.07700
H2072       H  0.44721419  0.11353584  0.86225426     0.02500
H2073       H  0.47235493  0.10040077  0.90645475     0.03000
H2074       H  0.48296222  0.08177002  0.85897171     0.06500
H2075       H  0.53368337  0.07546306  0.96065557     0.05500
H2076       H  0.57247916  0.10570321  0.95342445    -0.00300
H2077       H  0.54526566  0.09963995  0.91189675     0.01200
H2078       H  0.94640542  0.23398567  0.98009766     0.04900
H2079       H  0.97437483  0.23953440  0.02165046     0.06800
H2080       H  0.93492958  0.21094329  0.03011240     0.07700
C2081       C  0.61311529  0.48477643  0.93101871    -0.21900
C2082       C  0.62656590  0.01928853  0.95320966     0.10000
C2083       C  0.66057381  0.03566949  0.94347897     0.10400
C2084       C  0.67311462  0.04379290  0.90216689    -0.16800
C2085       C  0.65579192  0.03042756  0.86994064    -0.27300
C2086       C  0.62368832  0.48851514  0.88863729     0.18800
C2087       C  0.63368713  0.49632726  0.99915131     0.12700
C2088       C  0.68641565  0.03866636  0.97644005    -0.11600
H2089       H  0.70017598  0.05404283  0.89547895     0.13000
C2090       C  0.61356426  0.45932111  0.86261240    -0.22400
H2091       H  0.59980100  0.46027910  0.94471484     0.08700
C2092       C  0.61120236  0.02527585  0.02939215     0.05000
C2093       C  0.62315318  0.01425450  0.06851271    -0.19700
C2094       C  0.66653454  0.48755564  0.07470370    -0.12000
C2095       C  0.68280717  0.47382009  0.03903989     0.13700
C2096       C  0.66630904  0.47869853  0.00185977    -0.22400
C2097       C  0.59427142  0.06107999  0.02242027    -0.05500
H2098       H  0.62310505  0.03312828  0.09180463     0.15200
C2099       C  0.71854854  0.45572065  0.03834792    -0.15600
H2100       H  0.68027224  0.47074684  0.97396694     0.09600
H2101       H  0.59348970  0.44052126  0.87960129     0.07400
H2102       H  0.63722062  0.44349788  0.85396455     0.08600
H2103       H  0.60179804  0.47127572  0.83430267     0.07700
H2104       H  0.69082319  0.01146697  0.99097319     0.02500
H2105       H  0.67583689  0.05618982  0.99985807     0.03000
H2106       H  0.71293892  0.04933290  0.96379225     0.06500
H2107       H  0.59242779  0.07536077  0.05083867     0.05500
H2108       H  0.56868503  0.52486279  0.00415472    -0.00300
H2109       H  0.60991665  0.07793186  0.99766610     0.01200
H2110       H  0.71655876  0.42986045  0.02461222     0.04900
H2111       H  0.72808004  0.44971174  0.06959804     0.06800
H2112       H  0.73868089  0.47300463  0.01908912     0.07700
C2113       C  0.81518437  0.10070261  0.42729967    -0.21900
C2114       C  0.81492542  0.07058072  0.45687133     0.10000
C2115       C  0.81111487  0.03626599  0.44256926     0.10400
C2116       C  0.81181625  0.03290863  0.40003410    -0.16800
C2117       C  0.80827773  0.06269763  0.37080482    -0.27300
C2118       C  0.80983370  0.09720956  0.38514537     0.18800
C2119       C  0.81467890  0.07553972  0.50244649     0.12700
C2120       C  0.80170437  0.00282483  0.47092073    -0.11600
H2121       H  0.80955095  0.00615065  0.39012012     0.13000
C2122       C  0.80254181  0.13015281  0.35729600    -0.22400
H2123       H  0.81697635  0.12724032  0.43776514     0.08700
C2124       C  0.83592890  0.05501568  0.53019773     0.05000
C2125       C  0.82791896  0.05437147  0.57305970    -0.19700
C2126       C  0.80119278  0.07578947  0.58967724    -0.12000
C2127       C  0.78308111  0.09963473  0.56234643     0.13700
C2128       C  0.78968767  0.09890222  0.51928215    -0.22400
C2129       C  0.86664699  0.03265332  0.51600266    -0.05500
H2130       H  0.84240175  0.03646880  0.59376545     0.15200
C2131       C  0.75507472  0.12430506  0.57826304    -0.15600
H2132       H  0.77364857  0.11522528  0.49870509     0.09600
H2133       H  0.80465933  0.15494333  0.37326696     0.07400
H2134       H  0.77510918  0.12843756  0.34676526     0.08600
H2135       H  0.82205023  0.13235716  0.33013731     0.07700
H2136       H  0.79443693  0.00820564  0.50320009     0.02500
H2137       H  0.82439563  0.98428691  0.47028030     0.03000
H2138       H  0.77801182  0.98923964  0.46029593     0.06500
H2139       H  0.86111598  0.00394284  0.52641679     0.05500
H2140       H  0.89133483  0.04103931  0.52960678    -0.00300
H2141       H  0.87167645  0.03561317  0.48214847     0.01200
H2142       H  0.74441788  0.14197160  0.55286194     0.04900
H2143       H  0.76666975  0.14161778  0.59997586     0.06800
H2144       H  0.73240874  0.10828729  0.59417410     0.07700
C2145       C  0.98042802  0.06090899  0.49485193    -0.21900
C2146       C  0.95735691  0.07816107  0.46751982     0.10000
C2147       C  0.93216769  0.10237865  0.48254286     0.10400
C2148       C  0.93029357  0.10847627  0.52437317    -0.16800
C2149       C  0.95188370  0.08975786  0.55210717    -0.27300
C2150       C  0.97690153  0.06526316  0.53738931     0.18800
C2151       C  0.95960825  0.07154644  0.42305088     0.12700
C2152       C  0.90674519  0.12132555  0.45450233    -0.11600
H2153       H  0.91037839  0.12647269  0.53600912     0.13000
C2154       C  0.99839596  0.04249567  0.56671268    -0.22400
H2155       H  0.00024335  0.04302880  0.48323467     0.08700
C2156       C  0.98511823  0.08966760  0.39485313     0.05000
C2157       C  0.98131682  0.08988911  0.35234739    -0.19700
C2158       C  0.95093574  0.07476331  0.33708447    -0.12000
C2159       C  0.92651778  0.05487054  0.36534973     0.13700
C2160       C  0.93190634  0.05233540  0.40778377    -0.22400
C2161       C  0.01469700  0.11134266  0.40939054    -0.05500
H2162       H  0.00079081  0.10470683  0.33102536     0.15200
C2163       C  0.89276123  0.03984200  0.35177032    -0.15600
H2164       H  0.91252536  0.03804470  0.42941365     0.09600
H2165       H  0.01732168  0.02530237  0.55009089     0.07400
H2166       H  0.98015366  0.02482074  0.58811107     0.08600
H2167       H  0.01386833  0.05977619  0.58504828     0.07700
H2168       H  0.88907564  0.10147813  0.44243504     0.02500
H2169       H  0.92214894  0.13654538  0.42821079     0.03000
H2170       H  0.88952688  0.14022112  0.47079808     0.06500
H2171       H  0.03094709  0.12480918  0.38267729     0.05500
H2172       H  0.03209067  0.09382606  0.42810526    -0.00300
H2173       H  0.00352150  0.13212700  0.42842696     0.01200
H2174       H  0.89881967  0.02256791  0.32663092     0.04900
H2175       H  0.87599552  0.06225530  0.34042068     0.06800
H2176       H  0.87792324  0.02355207  0.37754463     0.07700
C2177       C  0.89728789  0.18266028  0.90209788    -0.21900
C2178       C  0.86654044  0.16889246  0.92496780     0.10000
C2179       C  0.83893305  0.15414988  0.90385847     0.10400
C2180       C  0.84340988  0.15274757  0.86070490    -0.16800
C2181       C  0.87480821  0.16567821  0.83777125    -0.27300
C2182       C  0.90228868  0.18075393  0.85928410     0.18800
C2183       C  0.86641285  0.16667239  0.97104476     0.12700
C2184       C  0.80468028  0.13911431  0.92575559    -0.11600
H2185       H  0.82214784  0.14127577  0.84494242     0.13000
C2186       C  0.93772278  0.19393011  0.83816678    -0.22400
H2187       H  0.91801040  0.19427084  0.91833889     0.08700
C2188       C  0.88712603  0.14097448  0.99268306     0.05000
C2189       C  0.88571157  0.13835711  0.03594417    -0.19700
C2190       C  0.86524943  0.16192250  0.05831514    -0.12000
C2191       C  0.84637683  0.18923491  0.03691941     0.13700
C2192       C  0.84713417  0.19130660  0.99337326    -0.22400
C2193       C  0.91119121  0.11664520  0.96995493    -0.05500
H2194       H  0.90084938  0.11789456  0.05246002     0.15200
C2195       C  0.82575041  0.21597036  0.06026838    -0.15600
H2196       H  0.83334048  0.21240073  0.97651153     0.09600
H2197       H  0.95024913  0.17228166  0.82155066     0.07400
H2198       H  0.95668773  0.20204441  0.86040902     0.08600
H2199       H  0.93401763  0.21769875  0.81606965     0.07700
H2200       H  0.80283770  0.14229572  0.95928093     0.02500
H2201       H  0.80230763  0.11021261  0.92160227     0.03000
H2202       H  0.78175934  0.15284375  0.91190198     0.06500
H2203       H  0.92410994  0.09658518  0.99110395     0.05500
H2204       H  0.93228256  0.13289542  0.95150240    -0.00300
H2205       H  0.89563383  0.10265785  0.94863222     0.01200
H2206       H  0.81247518  0.23562572  0.03926891     0.04900
H2207       H  0.84416499  0.23091288  0.07801927     0.06800
H2208       H  0.80499641  0.20186397  0.08197035     0.07700
C2209       C  0.84074781  0.06283651  0.01358606    -0.21900
C2210       C  0.86297560  0.04021019  0.99163034     0.10000
C2211       C  0.88504008  0.51557466  0.01146108     0.10400
C2212       C  0.88160979  0.51227829  0.05540607    -0.16800
C2213       C  0.85344808  0.03181387  0.08024708    -0.27300
C2214       C  0.83397139  0.05761288  0.05666425     0.18800
C2215       C  0.85918109  0.03999328  0.94532595     0.12700
C2216       C  0.91097646  0.49164198  0.99034332    -0.11600
H2217       H  0.89696138  0.49230310  0.07237562     0.13000
C2218       C  0.80403194  0.07887204  0.07492811    -0.22400
H2219       H  0.82656726  0.08368394  0.99656824     0.08700
C2220       C  0.82486768  0.03883232  0.92931792     0.05000
C2221       C  0.82187930  0.03983126  0.88645972    -0.19700
C2222       C  0.85138795  0.03432824  0.85888114    -0.12000
C2223       C  0.88576555  0.03591327  0.87416728     0.13700
C2224       C  0.88919988  0.04052069  0.91647887    -0.22400
C2225       C  0.79095641  0.03164358  0.95690634    -0.05500
H2226       H  0.79539184  0.03837677  0.87522614     0.15200
C2227       C  0.91885232  0.03058697  0.84679472    -0.15600
H2228       H  0.91563484  0.04328911  0.92703858     0.09600
H2229       H  0.77895440  0.07241187  0.06088014     0.07400
H2230       H  0.80948952  0.10789425  0.06701669     0.08600
H2231       H  0.79975237  0.07361421  0.10886706     0.07700
H2232       H  0.93277322  0.50782274  0.97282306     0.02500
H2233       H  0.89694861  0.47519768  0.96959368     0.03000
H2234       H  0.92420857  0.47336021  0.01303722     0.06500
H2235       H  0.76856791  0.02315926  0.93923752     0.05500
H2236       H  0.78214582  0.05595941  0.97131830    -0.00300
H2237       H  0.79512559  0.51538137  0.98417949     0.01200
H2238       H  0.92223805  0.05298563  0.82211146     0.04900
H2239       H  0.91702941  0.00476010  0.83286716     0.06800
H2240       H  0.93922215  0.52698338  0.85926089     0.07700
C2241       C  0.95583504  0.19760740  0.46010814    -0.21900
C2242       C  0.92480513  0.21286042  0.44516624     0.10000
C2243       C  0.89865047  0.22490175  0.47370575     0.10400
C2244       C  0.90722181  0.22792348  0.51481866    -0.16800
C2245       C  0.94100861  0.21803027  0.52789697    -0.27300
C2246       C  0.96379051  0.19926821  0.50128785     0.18800
C2247       C  0.92490006  0.22304618  0.39972712     0.12700
C2248       C  0.86260688  0.23604010  0.46020321    -0.11600
H2249       H  0.88905132  0.24146259  0.53527093     0.13000
C2250       C  0.99772005  0.18251288  0.51484768    -0.22400
H2251       H  0.97543234  0.18707059  0.43864150     0.08700
C2252       C  0.94566327  0.25278217  0.38187867     0.05000
C2253       C  0.95132212  0.25850660  0.33884280    -0.19700
C2254       C  0.93767240  0.23486086  0.31216515    -0.12000
C2255       C  0.91294668  0.20780946  0.33007273     0.13700
C2256       C  0.90722773  0.20200707  0.37367438    -0.22400
C2257       C  0.96254438  0.27839178  0.40833484    -0.05500
H2258       H  0.96734120  0.28162277  0.32621360     0.15200
C2259       C  0.89268058  0.18463192  0.30425042    -0.15600
H2260       H  0.88979862  0.18027172  0.38744770     0.09600
H2261       H  0.49272017  0.15061656  0.51881986     0.07400
H2262       H  0.99642173  0.15339375  0.51122366     0.08600
H2263       H  0.00185432  0.18585099  0.54766414     0.07700
H2264       H  0.84906101  0.21282105  0.44866463     0.02500
H2265       H  0.86557414  0.25808418  0.43509868     0.03000
H2266       H  0.84535920  0.24527822  0.48607076     0.06500
H2267       H  0.97712321  0.30071813  0.38931500     0.05500
H2268       H  0.98195484  0.26419431  0.42790728    -0.00300
H2269       H  0.94156623  0.29014430  0.42842285     0.01200
H2270       H  0.91108823  0.16665778  0.28860867     0.04900
H2271       H  0.87809735  0.20157006  0.28143849     0.06800
H2272       H  0.87278507  0.16728004  0.32354724     0.07700
C2273       C  0.94261695  0.38488214  0.48698593    -0.21900
C2274       C  0.95456712  0.41552227  0.46180390     0.10000
C2275       C  0.96148252  0.44746063  0.47985439     0.10400
C2276       C  0.95673028  0.44777776  0.52287748    -0.16800
C2277       C  0.94399190  0.41725041  0.54781789    -0.27300
C2278       C  0.93567719  0.38576848  0.52939235     0.18800
C2279       C  0.95403106  0.41410237  0.41676244     0.12700
C2280       C  0.97286364  0.48173280  0.45464528    -0.11600
H2281       H  0.96169135  0.47232840  0.53684260     0.13000
C2282       C  0.91664211  0.35363506  0.55244510    -0.22400
H2283       H  0.93549567  0.36089935  0.47293450     0.08700
C2284       C  0.97561050  0.39012547  0.39589466     0.05000
C2285       C  0.96993470  0.38536586  0.35488669    -0.19700
C2286       C  0.94213018  0.40275591  0.33451676    -0.12000
C2287       C  0.92053980  0.42704682  0.35562836     0.13700
C2288       C  0.92770608  0.43325395  0.39598198    -0.22400
C2289       C  0.00456530  0.36933371  0.41674741    -0.05500
H2290       H  0.98670060  0.36673022  0.33927235     0.15200
C2291       C  0.88932106  0.44577026  0.33687916    -0.15600
H2292       H  0.91130676  0.45172140  0.41236090     0.09600
H2293       H  0.93428280  0.33034091  0.55207871     0.07400
H2294       H  0.89263363  0.34672989  0.53665959     0.08600
H2295       H  0.90754358  0.35807217  0.58453642     0.07700
H2296       H  0.95261014  0.50214804  0.46068151     0.02500
H2297       H  0.97589407  0.47927777  0.42100677     0.03000
H2298       H  0.99892027  0.49089510  0.46396349     0.06500
H2299       H  0.01914930  0.35235377  0.39544694     0.05500
H2300       H  0.99320990  0.35120670  0.44329625    -0.00300
H2301       H  0.02404444  0.38809179  0.42752867     0.01200
H2302       H  0.86936479  0.42616223  0.32895675     0.04900
H2303       H  0.89868023  0.46274212  0.30843133     0.06800
H2304       H  0.87493061  0.46247461  0.35867561     0.07700
C2305       C  0.86407674  0.30605166  0.90429090    -0.21900
C2306       C  0.85341928  0.33819751  0.91960642     0.10000
C2307       C  0.84239328  0.36675925  0.89238052     0.10400
C2308       C  0.84364076  0.36284772  0.84991644    -0.16800
C2309       C  0.85668208  0.33146732  0.83416751    -0.27300
C2310       C  0.86523159  0.30208111  0.86201899     0.18800
C2311       C  0.85565211  0.34184114  0.96402630     0.12700
C2312       C  0.83172108  0.40215619  0.90771358    -0.11600
H2313       H  0.83732048  0.38549339  0.82875587     0.13000
C2314       C  0.87580435  0.26617978  0.84847468    -0.22400
H2315       H  0.87235942  0.28411188  0.92541287     0.08700
C2316       C  0.83219909  0.32304892  0.99430927     0.05000
C2317       C  0.83587704  0.32718485  0.03612526    -0.19700
C2318       C  0.86238494  0.35009484  0.04755389    -0.12000
C2319       C  0.88484600  0.36989219  0.01725276     0.13700
C2320       C  0.88185716  0.36469252  0.97595162    -0.22400
C2321       C  0.80339463  0.29896369  0.98230996    -0.05500
H2322       H  0.81816024  0.31271042  0.05978521     0.15200
C2323       C  0.91051312  0.39799088  0.02838384    -0.15600
H2324       H  0.89963923  0.37901371  0.95288891     0.09600
H2325       H  0.85811145  0.24505868  0.86555153     0.07400
H2326       H  0.90383627  0.26104909  0.85575735     0.08600
H2327       H  0.87318146  0.26402424  0.81516161     0.07700
H2328       H  0.85501379  0.41556898  0.91924432     0.02500
H2329       H  0.81058722  0.39803166  0.93323669     0.03000
H2330       H  0.82149197  0.42047562  0.88278675     0.06500
H2331       H  0.78665935  0.28744400  0.00963097     0.05500
H2332       H  0.81576950  0.27691170  0.96634017    -0.00300
H2333       H  0.78586809  0.31405379  0.96129339     0.01200
H2334       H  0.92593457  0.41110674  0.00069469     0.04900
H2335       H  0.92962335  0.38576628  0.04956103     0.06800
H2336       H  0.89542681  0.41876997  0.04408134     0.07700
C2337       C  0.77724800  0.36357194  0.43299061    -0.21900
C2338       C  0.81227073  0.35730503  0.44391661     0.10000
C2339       C  0.83927764  0.35472508  0.41161356     0.10400
C2340       C  0.83238534  0.36695250  0.37064093    -0.16800
C2341       C  0.79836526  0.37896737  0.36097368    -0.27300
C2342       C  0.76974672  0.37232223  0.39180150     0.18800
C2343       C  0.81954007  0.35917294  0.48847773     0.12700
C2344       C  0.87511972  0.33882101  0.41932595    -0.11600
H2345       H  0.85398679  0.36819229  0.34680434     0.13000
C2346       C  0.73103322  0.37575129  0.38249622    -0.22400
H2347       H  0.75564946  0.36328055  0.45691240     0.08700
C2348       C  0.84026314  0.38773290  0.50054010     0.05000
C2349       C  0.83912696  0.39481582  0.54215138    -0.19700
C2350       C  0.81391747  0.37769168  0.57142062    -0.12000
C2351       C  0.79532648  0.34726185  0.56053908     0.13700
C2352       C  0.79887902  0.33794399  0.51947580    -0.22400
C2353       C  0.86015792  0.41382046  0.46924163    -0.05500
H2354       H  0.85308292  0.41840702  0.55022812     0.15200
C2355       C  0.76851836  0.32666899  0.59041619    -0.15600
H2356       H  0.78257465  0.31617300  0.51079582     0.09600
H2357       H  0.71908152  0.39879098  0.39724339     0.07400
H2358       H  0.71613437  0.35086363  0.39490745     0.08600
H2359       H  0.72756878  0.37917077  0.34891115     0.07700
H2360       H  0.87888537  0.31517483  0.40148846     0.02500
H2361       H  0.87749323  0.33003175  0.45246315     0.03000
H2362       H  0.89684229  0.35839826  0.40844357     0.06500
H2363       H  0.87369907  0.43543491  0.48376774     0.05500
H2364       H  0.84164199  0.42607214  0.44706995    -0.00300
H2365       H  0.88094183  0.39965685  0.45234036     0.01200
H2366       H  0.74140242  0.32950732  0.57896172     0.04900
H2367       H  0.76800619  0.33610418  0.62169592     0.06800
H2368       H  0.77546376  0.29786107  0.59318822     0.07700
C2369       C  0.65740824  0.41585243  0.48548481    -0.21900
C2370       C  0.62397434  0.41921839  0.46885893     0.10000
C2371       C  0.59356508  0.42459664  0.49558638     0.10400
C2372       C  0.59711765  0.42562884  0.53811328    -0.16800
C2373       C  0.63047447  0.42237645  0.55483923    -0.27300
C2374       C  0.66107070  0.41739732  0.52801666     0.18800
C2375       C  0.62095129  0.41333923  0.42453660     0.12700
C2376       C  0.55694021  0.42980792  0.48034237    -0.11600
H2377       H  0.57355420  0.42922639  0.55840077     0.13000
C2378       C  0.69738494  0.41195974  0.54427145    -0.22400
H2379       H  0.68061804  0.41094536  0.46523559     0.08700
C2380       C  0.63358996  0.43868237  0.39191806     0.05000
C2381       C  0.62902451  0.43181298  0.35092275    -0.19700
C2382       C  0.61310969  0.39963237  0.34110113    -0.12000
C2383       C  0.60139465  0.37377800  0.37411615     0.13700
C2384       C  0.60505423  0.38129556  0.41516962    -0.22400
C2385       C  0.65188629  0.47303455  0.40010829    -0.05500
H2386       H  0.63859974  0.45173562  0.32631109     0.15200
C2387       C  0.58614161  0.33767939  0.36689292    -0.15600
H2388       H  0.59590456  0.36172516  0.44037866     0.09600
H2389       H  0.70576755  0.43656584  0.55764029     0.07400
H2390       H  0.71792225  0.40650043  0.51952745     0.08600
H2391       H  0.69649682  0.38888772  0.56830743     0.07700
H2392       H  0.53893644  0.40740263  0.49381914     0.02500
H2393       H  0.55676848  0.43157446  0.44623934     0.03000
H2394       H  0.54644843  0.45522640  0.49066904     0.06500
H2395       H  0.65927049  0.49031534  0.37115153     0.05500
H2396       H  0.67671014  0.46701702  0.41582772    -0.00300
H2397       H  0.63386639  0.48834188  0.41994877     0.01200
H2398       H  0.57847827  0.32115530  0.39630678     0.04900
H2399       H  0.56195025  0.34105504  0.34932646     0.06800
H2400       H  0.60631536  0.32258770  0.34944859     0.07700
C2401       C  0.66392541  0.31138185  0.91183686    -0.21900
C2402       C  0.69038504  0.33330964  0.92480091     0.10000
C2403       C  0.71417653  0.35268347  0.89539951     0.10400
C2404       C  0.71072431  0.34988413  0.85331884    -0.16800
C2405       C  0.68297705  0.32937651  0.83968719    -0.27300
C2406       C  0.65926781  0.30954276  0.86981039     0.18800
C2407       C  0.69055955  0.33762441  0.96930435     0.12700
C2408       C  0.74273332  0.37690759  0.90829081    -0.11600
H2409       H  0.72911601  0.36502626  0.83099186     0.13000
C2410       C  0.62817635  0.28718325  0.85901468    -0.22400
H2411       H  0.64576871  0.29681946  0.93497992     0.08700
C2412       C  0.67244744  0.36616093  0.98637131     0.05000
C2413       C  0.67335475  0.36951494  0.02867475    -0.19700
C2414       C  0.69090328  0.34436830  0.05428950    -0.12000
C2415       C  0.70690316  0.31451844  0.03781170     0.13700
C2416       C  0.70686607  0.31164188  0.99519174    -0.22400
C2417       C  0.65119020  0.39229803  0.96028872    -0.05500
H2418       H  0.65992926  0.39164620  0.04201147     0.15200
C2419       C  0.72420702  0.28616140  0.06512361    -0.15600
H2420       H  0.71933405  0.28906524  0.98205759     0.09600
H2421       H  0.61340821  0.27347486  0.88687017     0.07400
H2422       H  0.63762973  0.26603566  0.83965383     0.08600
H2423       H  0.60884365  0.30439712  0.84263498     0.07700
H2424       H  0.76038460  0.36109923  0.92846591     0.02500
H2425       H  0.73065265  0.39845705  0.92548909     0.03000
H2426       H  0.75927160  0.38976783  0.88126929     0.06500
H2427       H  0.63766193  0.41206585  0.97908309     0.05500
H2428       H  0.63025302  0.37760945  0.94581092    -0.00300
H2429       H  0.66881122  0.40721478  0.93568415     0.01200
H2430       H  0.73557794  0.26484575  0.04717780     0.04900
H2431       H  0.70411302  0.27344687  0.08871916     0.06800
H2432       H  0.74610896  0.29832460  0.08068589     0.07700
C2433       C  0.00356344  0.40959949  0.96839051    -0.21900
C2434       C  0.48771861  0.39112345  0.93950793     0.10000
C2435       C  0.47406303  0.35714598  0.95665915     0.10400
C2436       C  0.47775429  0.34610723  0.99864555    -0.16800
C2437       C  0.49619759  0.36726189  0.02403222    -0.27300
C2438       C  0.00791566  0.39856357  0.01036848     0.18800
C2439       C  0.49420561  0.39875087  0.89352965     0.12700
C2440       C  0.45914825  0.33068451  0.92979209    -0.11600
H2441       H  0.47003232  0.31891862  0.01047048     0.13000
C2442       C  0.02898316  0.42223133  0.03515223    -0.22400
H2443       H  0.01492997  0.43505876  0.95483126     0.08700
C2444       C  0.96633091  0.39784804  0.86981548     0.05000
C2445       C  0.97140048  0.38774935  0.82932513    -0.19700
C2446       C  0.50497542  0.38151607  0.81101251    -0.12000
C2447       C  0.53468534  0.38608548  0.83486329     0.13700
C2448       C  0.52876960  0.39334312  0.87631492    -0.22400
C2449       C  0.93096128  0.41248587  0.88322431    -0.05500
H2450       H  0.94853780  0.38529289  0.81110729     0.15200
C2451       C  0.57232015  0.38013721  0.81775442    -0.15600
H2452       H  0.55072651  0.39150595  0.89627914     0.09600
H2453       H  0.01266706  0.42784660  0.06345995     0.07400
H2454       H  0.03665968  0.44822509  0.01736461     0.08600
H2455       H  0.05388970  0.40875189  0.04403338     0.07700
H2456       H  0.43567700  0.34196225  0.91468816     0.02500
H2457       H  0.45043212  0.30514191  0.94790198     0.03000
H2458       H  0.47984894  0.32439892  0.90565151     0.06500
H2459       H  0.91007031  0.39164559  0.88223229     0.05500
H2460       H  0.92481319  0.43593362  0.86165357    -0.00300
H2461       H  0.93108159  0.42190010  0.91447291     0.01200
H2462       H  0.59222435  0.38494507  0.84039592     0.04900
H2463       H  0.57854043  0.39885912  0.78969669     0.06800
H2464       H  0.57565955  0.35231324  0.80962948     0.07700
C2465       C  0.60972202  0.21813781  0.47239663    -0.21900
C2466       C  0.63926122  0.20987162  0.44630072     0.10000
C2467       C  0.67077846  0.19767669  0.46395582     0.10400
C2468       C  0.67376808  0.19956025  0.50642211    -0.16800
C2469       C  0.64607290  0.21354764  0.53105712    -0.27300
C2470       C  0.61242908  0.21886018  0.51486828     0.18800
C2471       C  0.63561534  0.21467564  0.40105610     0.12700
C2472       C  0.70195488  0.18386325  0.43883020    -0.11600
H2473       H  0.69943889  0.19470326  0.51906578     0.13000
C2474       C  0.58073820  0.23025926  0.54130807    -0.22400
H2475       H  0.58492468  0.22586108  0.45910218     0.08700
C2476       C  0.60918253  0.19546654  0.38345088     0.05000
C2477       C  0.60179078  0.20461796  0.34262760    -0.19700
C2478       C  0.61877671  0.23395750  0.31860871    -0.12000
C2479       C  0.64711413  0.25187831  0.33511789     0.13700
C2480       C  0.65518318  0.24203535  0.37635377    -0.22400
C2481       C  0.58717713  0.16586945  0.40737281    -0.05500
H2482       H  0.58150641  0.18891326  0.32997952     0.15200
C2483       C  0.66798943  0.28188326  0.31012959    -0.15600
H2484       H  0.67558404  0.25683819  0.38999390     0.09600
H2485       H  0.55674085  0.23395619  0.52348138     0.07400
H2486       H  0.58637219  0.25623641  0.55351709     0.08600
H2487       H  0.57441790  0.20957430  0.56749525     0.07700
H2488       H  0.72586043  0.20120075  0.44069262     0.02500
H2489       H  0.69677073  0.18309518  0.40586158     0.03000
H2490       H  0.70779800  0.15613055  0.45138699     0.06500
H2491       H  0.58891253  0.14174517  0.39039014     0.05500
H2492       H  0.55895725  0.17428797  0.41079230    -0.00300
H2493       H  0.59642733  0.15842761  0.43835814     0.01200
H2494       H  0.64993886  0.30386628  0.30055383     0.04900
H2495       H  0.68140836  0.27169514  0.28223060     0.06800
H2496       H  0.68886079  0.29318344  0.32801089     0.07700
N2497       N  0.62114458  0.75390689  0.25308675    -0.02900
C2498       C  0.60619163  0.75207136  0.29287259    -0.00300
C2499       C  0.56948825  0.74792297  0.29268156    -0.23200
C2500       C  0.56459276  0.73323903  0.25683265    -0.23400
C2501       C  0.59802395  0.73161746  0.23642173    -0.00400
H2502       H  0.55102291  0.74436830  0.31981187     0.13300
H2503       H  0.54222175  0.71576332  0.25313943     0.13400
N2504       N  0.64688008  0.73976328  0.60738960    -0.02900
C2505       C  0.65591124  0.73439407  0.56717748    -0.00300
C2506       C  0.66863184  0.76574568  0.54500004    -0.23200
C2507       C  0.66655377  0.79179591  0.57116541    -0.23400
C2508       C  0.65319399  0.77567881  0.60888091    -0.00400
H2509       H  0.67557497  0.76981745  0.51208415     0.13300
H2510       H  0.67352974  0.81984646  0.56334236     0.13400
N2511       N  0.52041527  0.85447399  0.73935523    -0.02900
C2512       C  0.51362806  0.84968191  0.78147764    -0.00300
C2513       C  0.52151135  0.81539465  0.79682872    -0.23200
C2514       C  0.54063547  0.80121539  0.76568100    -0.23400
C2515       C  0.54552419  0.82832216  0.73367235    -0.00400
H2516       H  0.52048437  0.80501253  0.82901542     0.13300
H2517       H  0.55743070  0.77827180  0.77070975     0.13400
N2518       N  0.52145477  0.84917089  0.10042606    -0.02900
C2519       C  0.51725778  0.83742314  0.06251854    -0.00300
C2520       C  0.53960694  0.80907964  0.05618186    -0.23200
C2521       C  0.55947569  0.80408751  0.08971710    -0.23400
C2522       C  0.54847482  0.82904776  0.11635574    -0.00400
H2523       H  0.54372250  0.79588258  0.02810236     0.13300
H2524       H  0.58154680  0.78589358  0.09290558     0.13400
O2525       O  0.65884726  0.82179890  0.78491887    -0.80400
O2526       O  0.62104083  0.89963932  0.62285028    -0.65000
O2527       O  0.67175974  0.84710391  0.70337217    -1.11600
C2528       C  0.68150372  0.96038644  0.75508534     1.06500
O2529       O  0.66515871  0.94023846  0.61502551    -0.78300
O2530       O  0.71533286  0.95042692  0.67048274    -0.65800
Ni2531     Ni  0.65666199  0.80374374  0.73163424     1.34900
C2532       C  0.73594064  0.92369807  0.67415020     0.85300
O2533       O  0.63890212  0.83001716  0.63505589    -0.78800
O2534       O  0.65582299  0.78451776  0.67946306    -0.89100
C2535       C  0.64154661  0.92145914  0.59984311     0.84800
O2536       O  0.60626780  0.81136974  0.73262688    -0.67300
O2537       O  0.66451231  0.97251014  0.72435185    -0.86600
C2538       C  0.58457819  0.83449194  0.71811746     0.85700
C2539       C  0.64787160  0.79745461  0.64378603     1.07200
H2540       H  0.62870314  0.91389210  0.71241991     0.39000
O2541       O  0.65073179  0.91034859  0.69626666    -1.09200
O2542       O  0.72618480  0.89491507  0.69646202    -0.65900
Ni2543     Ni  0.68188539  0.88660649  0.73264434     1.26300
O2544       O  0.59568369  0.86128453  0.69321876    -0.66100
O2545       O  0.69206863  0.92812814  0.75995986    -0.78400
C2546       C  0.68569145  0.83764617  0.79774506     0.85100
O2547       O  0.70623174  0.85830609  0.77297865    -0.65600
Ni2548     Ni  0.66456563  0.95553497  0.67058431     1.27400
Ni2549     Ni  0.64339624  0.87127048  0.66468258     1.26100
H2550       H  0.69359748  0.84141295  0.68804905     0.39600
O2551       O  0.70789350  0.87375163  0.11174258    -0.80400
O2552       O  0.62869585  0.91640804  0.27066259    -0.65000
O2553       O  0.68534701  0.86626372  0.19544953    -1.11600
C2554       C  0.57107808  0.83743590  0.15031359     1.06500
O2555       O  0.59584711  0.86742158  0.28786162    -0.78300
O2556       O  0.59327760  0.80977995  0.24374003    -0.65800
Ni2557     Ni  0.72455211  0.88781121  0.16256237     1.34900
C2558       C  0.62021521  0.79105631  0.23361108     0.85300
O2559       O  0.69949989  0.91051157  0.25749495    -0.78800
O2560       O  0.74467780  0.90209563  0.21086809    -0.89100
C2561       C  0.61274223  0.89467097  0.29819908     0.84800
O2562       O  0.70498763  0.93449541  0.15115524    -0.67300
O2563       O  0.55729695  0.84844243  0.18384972    -0.86600
C2564       C  0.67843162  0.95213682  0.16480071     0.85700
C2565       C  0.73277249  0.91061440  0.24600922     1.07200
H2566       H  0.61072066  0.89703438  0.18676006     0.39000
O2567       O  0.61914346  0.87728304  0.20448178    -1.09200
O2568       O  0.64460357  0.80378925  0.20672359    -0.65900
Ni2569     Ni  0.64577430  0.84842215  0.16934548     1.26300
O2570       O  0.65791316  0.93951776  0.19569086    -0.66100
O2571       O  0.60462024  0.83288067  0.14356656    -0.78400
C2572       C  0.69352792  0.84447292  0.10363536     0.85100
O2573       O  0.67500251  0.82467022  0.13098997    -0.65600
Ni2574     Ni  0.57785329  0.85820061  0.23505473     1.27400
Ni2575     Ni  0.65839659  0.89442124  0.23155667     1.26100
H2576       H  0.69492831  0.84660586  0.21238105     0.39600
N2577       N  0.78714366  0.90020154  0.28678040    -0.02900
C2578       C  0.79410629  0.90984947  0.32485037    -0.00300
C2579       C  0.77491942  0.94026385  0.33278908    -0.23200
C2580       C  0.75150865  0.94586785  0.30256973    -0.23400
C2581       C  0.75877760  0.92050362  0.27541132    -0.00400
H2582       H  0.77269372  0.95221612  0.36183152     0.13300
H2583       H  0.72907982  0.96374425  0.30289783     0.13400
N2584       N  0.79610782  0.90274480  0.64007138    -0.02900
C2585       C  0.80087929  0.90568329  0.59766142    -0.00300
C2586       C  0.78471433  0.93520634  0.57961440    -0.23200
C2587       C  0.76603558  0.94972352  0.61018798    -0.23400
C2588       C  0.76982487  0.92770687  0.64624822    -0.00400
H2589       H  0.78426397  0.94351324  0.54694542     0.13300
H2590       H  0.74622304  0.97007515  0.60462304     0.13400
O2591       O  0.91139684  0.93698141  0.60237601    -0.80400
O2592       O  0.85469673  0.85026754  0.76345818    -0.65000
O2593       O  0.91229419  0.91100635  0.68516332    -1.11600
C2594       C  0.94921592  0.79809266  0.64012321     1.06500
O2595       O  0.90389787  0.82086185  0.77759717    -0.78300
O2596       O  0.96725451  0.82237996  0.73248259    -0.65800
Ni2597     Ni  0.89528656  0.95253340  0.65578108     1.34900
C2598       C  0.98488352  0.85145051  0.72118670     0.85300
O2599       O  0.86144077  0.92181216  0.74872754    -0.78800
O2600       O  0.87865988  0.97111852  0.70740184    -0.89100
C2601       C  0.87328069  0.83232462  0.78920429     0.84800
O2602       O  0.84810747  0.93505166  0.64833936    -0.67300
O2603       O  0.93615711  0.78379930  0.67503438    -0.86600
C2604       C  0.82944703  0.90679800  0.66005555     0.85700
C2605       C  0.86391723  0.95590491  0.74116862     1.07200
H2606       H  0.88416689  0.83433910  0.67868154     0.39000
O2607       O  0.90198833  0.84387277  0.69493791    -1.09200
O2608       O  0.97422752  0.87423358  0.69308229    -0.65900
Ni2609     Ni  0.93353694  0.87263972  0.65775391     1.26300
O2610       O  0.83991312  0.88262233  0.68697364    -0.66100
O2611       O  0.95325541  0.83210510  0.63183737    -0.78400
C2612       C  0.93990406  0.92118469  0.59081188     0.85100
O2613       O  0.95896663  0.90417745  0.61663627    -0.65600
Ni2614     Ni  0.92016799  0.80380731  0.72553450     1.27400
Ni2615     Ni  0.88077777  0.88205312  0.72237884     1.26100
H2616       H  0.93002247  0.92011540  0.70180038     0.39600
O2617       O  0.95650537  0.86887319  0.27263749    -0.80400
O2618       O  0.88770128  0.83538077  0.11269260    -0.65000
O2619       O  0.93027867  0.88622662  0.19401067    -1.11600
C2620       C  0.81490828  0.89089195  0.25628705     1.06500
O2621       O  0.84435159  0.87545796  0.10867624    -0.78300
O2622       O  0.85438876  0.93049996  0.15387282    -0.65800
Ni2623     Ni  0.97419311  0.87200564  0.21532986     1.34900
C2624       C  0.86192672  0.94963519  0.18231262     0.85300
O2625       O  0.95595116  0.85499724  0.12069002    -0.78800
O2626       O  0.99687148  0.87429084  0.16059732    -0.89100
C2627       C  0.86403619  0.85215035  0.09279059     0.84800
O2628       O  0.96630066  0.82160670  0.21550912    -0.67300
O2629       O  0.80892248  0.89608332  0.21806900    -0.86600
C2630       C  0.94434861  0.79935507  0.20305822     0.85700
C2631       C  0.98844874  0.86209782  0.12742978     1.07200
H2632       H  0.85957854  0.83775735  0.19970251     0.39000
O2633       O  0.86780875  0.86144222  0.18854999    -1.09200
O2634       O  0.87545230  0.93514317  0.21444864    -0.65900
Ni2635     Ni  0.88850095  0.88508497  0.23125000     1.26300
O2636       O  0.91874342  0.81007654  0.18142886    -0.66100
O2637       O  0.84550833  0.88124186  0.26742478    -0.78400
C2638       C  0.93772379  0.89174649  0.29038201     0.85100
O2639       O  0.91197667  0.90632068  0.27277811    -0.65600
Ni2640     Ni  0.82934549  0.88533035  0.16426697     1.27400
Ni2641     Ni  0.91098679  0.85823577  0.15396200     1.26100
H2642       H  0.93383713  0.91043689  0.18124535     0.39600
N2643       N  0.92764660  0.73444578  0.23278481    -0.02900
C2644       C  0.93830175  0.73137185  0.27246584    -0.00300
C2645       C  0.97418482  0.73941404  0.27225217    -0.23200
C2646       C  0.98349768  0.75594423  0.23410443    -0.23400
C2647       C  0.95202184  0.75989348  0.21435987    -0.00400
H2648       H  0.98884346  0.74114331  0.29932034     0.13300
H2649       H  0.00661604  0.77359444  0.22803843     0.13400
N2650       N  0.94219559  0.74546404  0.59584745    -0.02900
C2651       C  0.95535920  0.74065218  0.55665662    -0.00300
C2652       C  0.98170276  0.76605398  0.54358957    -0.23200
C2653       C  0.98483494  0.78749042  0.57491852    -0.23400
C2654       C  0.96000657  0.77512394  0.60644210    -0.00400
H2655       H  0.99462218  0.77085884  0.51280967     0.13300
H2656       H  0.00109942  0.81169516  0.57325773     0.13400
N2657       N  0.85320593  0.51223110  0.78258979    -0.02900
C2658       C  0.83708295  0.51439377  0.82155998    -0.00300
C2659       C  0.82293421  0.98018799  0.83711842    -0.23200
C2660       C  0.82576908  0.95916259  0.80554692    -0.23400
C2661       C  0.84814183  0.97689546  0.77475515    -0.00400
H2662       H  0.80942636  0.97243908  0.86709529     0.13300
H2663       H  0.81464309  0.93232712  0.80630752     0.13400
N2664       N  0.86205170  0.51424908  0.15586022    -0.02900
C2665       C  0.84335117  0.51606040  0.12080756    -0.00300
C2666       C  0.80905139  0.00127716  0.13331975    -0.23200
C2667       C  0.81061210  0.98407568  0.17193371    -0.23400
C2668       C  0.84614876  0.98673599  0.18130497    -0.00400
H2669       H  0.78931845  0.99651439  0.11187719     0.13300
H2670       H  0.79204814  0.96266423  0.18390866     0.13400
O2671       O  0.90030314  0.68387312  0.76865210    -0.80400
O2672       O  0.95322650  0.61656492  0.61548790    -0.65000
O2673       O  0.89068126  0.65936003  0.69247981    -1.11600
C2674       C  0.86654983  0.54201569  0.75312995     1.06500
O2675       O  0.91162771  0.57510409  0.60844866    -0.78300
O2676       O  0.84962137  0.58740285  0.64902147    -0.65800
Ni2677     Ni  0.90280832  0.70332915  0.71183821     1.34900
C2678       C  0.82529374  0.59752902  0.67413204     0.85300
O2679       O  0.93486296  0.68479858  0.62104929    -0.78800
O2680       O  0.90663261  0.72606084  0.65610080    -0.89100
C2681       C  0.93860836  0.59448583  0.59439450     0.84800
O2682       O  0.95360872  0.69848324  0.70934686    -0.67300
O2683       O  0.86737511  0.53748283  0.71465328    -0.86600
C2684       C  0.97716838  0.67604866  0.69889466     0.85700
C2685       C  0.92614113  0.71735286  0.62509099     1.07200
H2686       H  0.93286891  0.58647744  0.70115559     0.39000
O2687       O  0.91185626  0.59589549  0.68874499    -1.09200
O2688       O  0.83392103  0.60857901  0.70835590    -0.65900
Ni2689     Ni  0.88180966  0.61690139  0.72982737     1.26300
O2690       O  0.96802083  0.64737181  0.68338008    -0.66100
O2691       O  0.87479721  0.57236865  0.76529108    -0.78400
C2692       C  0.87628268  0.66436387  0.78945940     0.85100
O2693       O  0.85804001  0.64181363  0.77223761    -0.65600
Ni2694     Ni  0.89009221  0.55919132  0.66261621     1.27400
Ni2695     Ni  0.92410799  0.63973415  0.65456228     1.26100
H2696       H  0.86928530  0.66383374  0.67809874     0.42800
O2697       O  0.83748429  0.63044094  0.12050352    -0.80400
O2698       O  0.91878847  0.57010659  0.27268429    -0.65000
O2699       O  0.86604625  0.63083691  0.19801502    -1.11600
C2700       C  0.98302668  0.65374173  0.13115501     1.06500
O2701       O  0.95361307  0.61766569  0.27636695    -0.78300
O2702       O  0.95567246  0.67871811  0.22783885    -0.65800
Ni2703     Ni  0.82264888  0.61704146  0.17797062     1.34900
C2704       C  0.93100786  0.69936837  0.21527118     0.85300
O2705       O  0.84736671  0.58147701  0.27095815    -0.78800
O2706       O  0.80352558  0.60315779  0.23375832    -0.89100
C2707       C  0.94041655  0.58780733  0.29224192     0.84800
O2708       O  0.83575584  0.56900372  0.16881440    -0.67300
O2709       O  0.99283169  0.64460673  0.16703973    -0.86600
C2710       C  0.86150848  0.54794628  0.17619833     0.85700
C2711       C  0.81405763  0.58684202  0.26670099     1.07200
H2712       H  0.93862822  0.59388660  0.18361617     0.39000
O2713       O  0.93052230  0.61375463  0.19846848    -1.09200
O2714       O  0.91050603  0.68995137  0.18822095    -0.65900
Ni2715     Ni  0.90682549  0.64516871  0.16048466     1.26300
O2716       O  0.88500239  0.55540132  0.20139096    -0.66100
O2717       O  0.94989233  0.65665282  0.12398127    -0.78400
C2718       C  0.85759730  0.65521958  0.10184524     0.85100
O2719       O  0.88019490  0.67177669  0.12063373    -0.65600
Ni2720     Ni  0.97141469  0.63104959  0.22097104     1.27400
Ni2721     Ni  0.88991530  0.59726293  0.23454096     1.26100
H2722       H  0.86002370  0.65079894  0.21376979     0.39600
N2723       N  0.78630770  0.57145522  0.29758591    -0.02900
C2724       C  0.78963492  0.55100260  0.33453503    -0.00300
C2725       C  0.75942620  0.52913999  0.34396564    -0.23200
C2726       C  0.73588624  0.53774571  0.31523110    -0.23400
C2727       C  0.75220032  0.56382308  0.28783190    -0.00400
H2728       H  0.75265330  0.51243299  0.37240494     0.13300
H2729       H  0.70856367  0.52795618  0.31595594     0.13400
N2730       N  0.78767522  0.59166668  0.66493762    -0.02900
C2731       C  0.78461748  0.56705877  0.63677022    -0.00300
C2732       C  0.77291039  0.53473858  0.65673435    -0.23200
C2733       C  0.76206709  0.54167017  0.69630401    -0.23400
C2734       C  0.76323799  0.57885813  0.69675508    -0.00400
H2735       H  0.76966739  0.50986254  0.64325944     0.13300
H2736       H  0.74521438  0.52323757  0.71690328     0.13400
N2737       N  0.66997194  0.50693709  0.80068449    -0.02900
C2738       C  0.67598567  0.51017635  0.84081644    -0.00300
C2739       C  0.70683224  0.99527292  0.84766113    -0.23200
C2740       C  0.71212145  0.97276736  0.81757509    -0.23400
C2741       C  0.68949423  0.98363007  0.78756089    -0.00400
H2742       H  0.71718713  0.99108654  0.87789491     0.13300
H2743       H  0.72864613  0.94926845  0.81904033     0.13400
N2744       N  0.67121374  0.98661171  0.14207471    -0.02900
C2745       C  0.67212134  0.98175046  0.10083791    -0.00300
C2746       C  0.72176423  0.51162019  0.10247932    -0.23200
C2747       C  0.73060498  0.52082735  0.13994177    -0.23400
C2748       C  0.69957776  0.51634084  0.16571240    -0.00400
H2749       H  0.73660309  0.51848926  0.07316559     0.13300
H2750       H  0.75228903  0.53926180  0.14361050     0.13400
N2751       N  0.53226120  0.66555604  0.73394584    -0.02900
C2752       C  0.52656428  0.68236883  0.76950586    -0.00300
C2753       C  0.51652731  0.71720494  0.76048600    -0.23200
C2754       C  0.01748037  0.72321033  0.71186935    -0.23400
C2755       C  0.51155482  0.68602338  0.70771174    -0.00400
H2756       H  0.01542405  0.74246201  0.77329838     0.13300
H2757       H  0.00333047  0.74484381  0.69605522     0.13400
N2758       N  0.51715507  0.66284645  0.10030598    -0.02900
C2759       C  0.51264385  0.67854712  0.06147855    -0.00300
C2760       C  0.54350919  0.69719778  0.04625562    -0.23200
C2761       C  0.56864424  0.68986721  0.07383719    -0.23400
C2762       C  0.55255241  0.66821278  0.10660872    -0.00400
H2763       H  0.54918286  0.70945810  0.01504060     0.13300
H2764       H  0.59651774  0.69740987  0.06877326     0.13400
O2765       O  0.65192558  0.57232309  0.62352308    -0.80400
O2766       O  0.67779686  0.63407921  0.79240279    -0.65000
O2767       O  0.63577741  0.59189825  0.70423090    -1.11600
C2768       C  0.63947902  0.71236148  0.64181740     1.06500
O2769       O  0.63924369  0.67842077  0.79087130    -0.78300
O2770       O  0.59119111  0.68746510  0.73414221    -0.65800
Ni2771     Ni  0.66190728  0.55567468  0.67919384     1.34900
C2772       C  0.57076430  0.66443697  0.72078009     0.85300
O2773       O  0.65485066  0.56706522  0.78273558    -0.78800
O2774       O  0.67327175  0.53347459  0.73267151    -0.89100
C2775       C  0.66209143  0.65928830  0.80929368     0.84800
O2776       O  0.70575198  0.58295967  0.67043738    -0.67300
O2777       O  0.64309377  0.72076541  0.67824757    -0.86600
C2778       C  0.72452806  0.59086555  0.69917653     0.85700
C2779       C  0.66475240  0.53708924  0.77069788     1.07200
H2780       H  0.68251979  0.65983062  0.70082792     0.39000
O2781       O  0.65836188  0.65476908  0.71225804    -1.09200
O2782       O  0.58325886  0.64230204  0.69582179    -0.65900
Ni2783     Ni  0.63222211  0.63576743  0.67015035     1.26300
O2784       O  0.70913839  0.60108770  0.73227571    -0.66100
O2785       O  0.63186927  0.68033327  0.63480881    -0.78400
C2786       C  0.62811804  0.59167877  0.60708065     0.85100
O2787       O  0.61044637  0.61359605  0.62755982    -0.65600
Ni2788     Ni  0.64122278  0.69743558  0.73348894     1.27400
Ni2789     Ni  0.65830634  0.61162690  0.74842216     1.26100
H2790       H  0.61230692  0.58255464  0.71404081     0.39600
O2791       O  0.58902906  0.61393703  0.28303733    -0.80400
O2792       O  0.67517006  0.68354299  0.13292013    -0.65000
O2793       O  0.62275477  0.61256202  0.20341135    -1.11600
C2794       C  0.73056402  0.58384237  0.25778477     1.06500
O2795       O  0.71781013  0.64479309  0.12105408    -0.78300
O2796       O  0.69834444  0.57976982  0.15440837    -0.65800
Ni2797     Ni  0.57630723  0.62156695  0.22579703     1.34900
C2798       C  0.68750405  0.55246264  0.17810850     0.85300
O2799       O  0.60679623  0.66360503  0.13897596    -0.78800
O2800       O  0.56084372  0.63072731  0.17022698    -0.89100
C2801       C  0.69834037  0.67067534  0.10861122     0.84800
O2802       O  0.58186945  0.67199578  0.22804209    -0.67300
O2803       O  0.74131595  0.58794618  0.21966782    -0.86600
C2804       C  0.60692122  0.69552380  0.22198971     0.85700
C2805       C  0.57414745  0.65309801  0.14099518     1.07200
H2806       H  0.69495442  0.65510111  0.21543048     0.39000
O2807       O  0.68702850  0.63552091  0.20077128    -1.09200
O2808       O  0.67183879  0.55668559  0.21321524    -0.65900
Ni2809     Ni  0.66033201  0.60169416  0.23847617     1.26300
O2810       O  0.63723039  0.68857289  0.20468657    -0.66100
O2811       O  0.69966852  0.59294377  0.27110903    -0.78400
C2812       C  0.60907722  0.59030767  0.29987483     0.85100
O2813       O  0.63077474  0.57303000  0.27818854    -0.65600
Ni2814     Ni  0.72693446  0.61727863  0.17157406     1.27400
Ni2815     Ni  0.64746487  0.64999455  0.16930892     1.26100
H2816       H  0.62023300  0.59282785  0.18669083     0.39600
C2817       C  0.64054306  0.60397535  0.40547850    -0.21900
C2818       C  0.61756338  0.58080272  0.43141362     0.10000
C2819       C  0.59275305  0.55922276  0.41377667     0.10400
C2820       C  0.58987811  0.56309010  0.37071358    -0.16800
C2821       C  0.61196070  0.58746226  0.34500397    -0.27300
C2822       C  0.63813662  0.60765872  0.36262685     0.18800
C2823       C  0.61912590  0.58126508  0.47686463     0.12700
C2824       C  0.56996652  0.53169279  0.44036308    -0.11600
H2825       H  0.57058647  0.54690257  0.35706436     0.13000
C2826       C  0.66367736  0.63382920  0.33747974    -0.22400
H2827       H  0.65963061  0.62044108  0.41897292     0.08700
C2828       C  0.64914961  0.56867959  0.49707805     0.05000
C2829       C  0.65067586  0.57221804  0.53931893    -0.19700
C2830       C  0.62343703  0.58899025  0.56224702    -0.12000
C2831       C  0.59360389  0.60232966  0.54157711     0.13700
C2832       C  0.59142221  0.59727833  0.49953020    -0.22400
C2833       C  0.67949531  0.55097435  0.47436130    -0.05500
H2834       H  0.67394404  0.56222010  0.55428105     0.15200
C2835       C  0.56410703  0.62206852  0.56308711    -0.15600
H2836       H  0.56823835  0.60664639  0.48395572     0.09600
H2837       H  0.69141081  0.62428937  0.34001533     0.07400
H2838       H  0.66214742  0.66041049  0.34966606     0.08600
H2839       H  0.65804896  0.63773272  0.30448606     0.07700
H2840       H  0.55374380  0.54486324  0.46393908     0.02500
H2841       H  0.58707943  0.51194127  0.45668644     0.03000
H2842       H  0.55188783  0.51714208  0.42181982     0.06500
H2843       H  0.70031848  0.54158436  0.49526009     0.05500
H2844       H  0.69255494  0.57011391  0.44976387    -0.00300
H2845       H  0.66917078  0.52739964  0.46036819     0.01200
H2846       H  0.54273548  0.62972861  0.54226081     0.04900
H2847       H  0.57496572  0.64706802  0.57358636     0.06800
H2848       H  0.55177736  0.60487211  0.58997956     0.07700
C2849       C  0.70852392  0.68356232  0.90304027    -0.21900
C2850       C  0.68063697  0.67864480  0.93407177     0.10000
C2851       C  0.64621502  0.66860872  0.92366920     0.10400
C2852       C  0.64094324  0.66223866  0.88269399    -0.16800
C2853       C  0.66920304  0.66581541  0.85199385    -0.27300
C2854       C  0.70334278  0.67683245  0.86220594     0.18800
C2855       C  0.68902864  0.68016778  0.97770149     0.12700
C2856       C  0.61529005  0.66378560  0.95587957    -0.11600
H2857       H  0.61477708  0.65389491  0.87465700     0.13000
C2858       C  0.73417273  0.68204214  0.83000426    -0.22400
H2859       H  0.73467263  0.69181152  0.91114146     0.08700
C2860       C  0.70960686  0.65336584  0.99756544     0.05000
C2861       C  0.71517621  0.65431267  0.03905862    -0.19700
C2862       C  0.69892830  0.67967596  0.06311204    -0.12000
C2863       C  0.67942315  0.70761310  0.04312993     0.13700
C2864       C  0.67505951  0.70763904  0.00042534    -0.22400
C2865       C  0.72453117  0.62152750  0.97767935    -0.05500
H2866       H  0.73060028  0.63279155  0.05319478     0.15200
C2867       C  0.66371541  0.73761814  0.06590780    -0.15600
H2868       H  0.65981280  0.72856156  0.98492569     0.09600
H2869       H  0.75872936  0.69153240  0.84313929     0.07400
H2870       H  0.72726238  0.70226693  0.80485730     0.08600
H2871       H  0.74024018  0.65627332  0.81697977     0.07700
H2872       H  0.60883327  0.68987315  0.96789485     0.02500
H2873       H  0.62217268  0.64449948  0.98190023     0.03000
H2874       H  0.59097395  0.65348147  0.94305261     0.06500
H2875       H  0.71243844  0.59669430  0.99400714     0.05500
H2876       H  0.75335125  0.61996868  0.98236325    -0.00300
H2877       H  0.72032642  0.62175615  0.94442156     0.01200
H2878       H  0.68530079  0.75211021  0.07950484     0.04900
H2879       H  0.64364644  0.72738004  0.09077373     0.06800
H2880       H  0.64992292  0.75703711  0.04492912     0.07700
C2881       C  0.53687946  0.67915810  0.88454039    -0.21900
C2882       C  0.51324308  0.65102793  0.89963527     0.10000
C2883       C  0.50016795  0.62851172  0.87110672     0.10400
C2884       C  0.50900886  0.63656583  0.82831645    -0.16800
C2885       C  0.52994717  0.66692031  0.81313547    -0.27300
C2886       C  0.54557040  0.68726933  0.84217737     0.18800
C2887       C  0.50069789  0.64945352  0.94452319     0.12700
C2888       C  0.47550959  0.59698344  0.88424879    -0.11600
H2889       H  0.49672866  0.62089032  0.80658073     0.13000
C2890       C  0.57059242  0.71875536  0.82989207    -0.22400
H2891       H  0.54764336  0.69608654  0.90614206     0.08700
C2892       C  0.51249819  0.62361904  0.97490234     0.05000
C2893       C  0.50761243  0.62963205  0.01701903    -0.19700
C2894       C  0.49344051  0.66193725  0.02937335    -0.12000
C2895       C  0.97491971  0.68977195  0.99576123     0.13700
C2896       C  0.48143314  0.67880225  0.95779132    -0.22400
C2897       C  0.53349702  0.59139110  0.96408414    -0.05500
H2898       H  0.52035378  0.61179563  0.03947781     0.15200
C2899       C  0.95311959  0.72123386  0.00749012    -0.15600
H2900       H  0.97119893  0.70466490  0.93094042     0.09600
H2901       H  0.59559630  0.71505042  0.84591458     0.07400
H2902       H  0.55788461  0.74365913  0.83919693     0.08600
H2903       H  0.57823611  0.72203644  0.79642539     0.07700
H2904       H  0.44925163  0.60166555  0.87110211     0.02500
H2905       H  0.47113101  0.59187626  0.91817330     0.03000
H2906       H  0.48726736  0.57246022  0.87264226     0.06500
H2907       H  0.51894016  0.56663560  0.97757440     0.05500
H2908       H  0.55996704  0.59236104  0.97711965    -0.00300
H2909       H  0.53811527  0.58990971  0.93039060     0.01200
H2910       H  0.92612273  0.71924993  0.99581045     0.04900
H2911       H  0.96637978  0.74650053  0.99351972     0.06800
H2912       H  0.94970608  0.72219840  0.04145377     0.07700
C2913       C  0.60640412  0.01061175  0.92061063    -0.21900
C2914       C  0.62467120  0.50965512  0.95684671     0.10000
C2915       C  0.64045429  0.54223273  0.93879309     0.10400
C2916       C  0.65248225  0.54545508  0.89678353    -0.16800
C2917       C  0.64724639  0.51715611  0.87251996    -0.27300
C2918       C  0.62107912  0.01490207  0.87914319     0.18800
C2919       C  0.61732914  0.00340990  0.99653512     0.12700
C2920       C  0.64779439  0.57182546  0.96513451    -0.11600
H2921       H  0.66945830  0.56804219  0.88434850     0.13000
C2922       C  0.60101730  0.99940138  0.84632316    -0.22400
H2923       H  0.58084282  0.99695645  0.92797462     0.08700
C2924       C  0.61530473  0.50613886  0.03556678     0.05000
C2925       C  0.63193109  0.50146534  0.07312731    -0.19700
C2926       C  0.64083496  0.98168048  0.07525244    -0.12000
C2927       C  0.63967946  0.95701468  0.04502462     0.13700
C2928       C  0.62788378  0.96804638  0.00601592    -0.22400
C2929       C  0.57920065  0.52311844  0.03521624    -0.05500
H2930       H  0.61915542  0.51172309  0.10037768     0.15200
C2931       C  0.65437178  0.92013952  0.05186782    -0.15600
H2932       H  0.63159113  0.95049125  0.98146867     0.09600
H2933       H  0.57427485  0.98875198  0.85865908     0.07400
H2934       H  0.61608065  0.97690663  0.83403990     0.08600
H2935       H  0.59717358  0.02049550  0.82087891     0.07700
H2936       H  0.66506122  0.56198398  0.98981338     0.02500
H2937       H  0.62226330  0.58061703  0.97973884     0.03000
H2938       H  0.66091731  0.59520700  0.94660565     0.06500
H2939       H  0.55993138  0.50679670  0.05680030     0.05500
H2940       H  0.56674214  0.05685039  0.01358021    -0.00300
H2941       H  0.58094548  0.55055788  0.04528785     0.01200
H2942       H  0.63372708  0.90019691  0.04590448     0.04900
H2943       H  0.66136549  0.91434871  0.08418120     0.06800
H2944       H  0.67843410  0.91746547  0.03061260     0.07700
C2945       C  0.81095792  0.59729044  0.42945727    -0.21900
C2946       C  0.81365129  0.56694024  0.45820100     0.10000
C2947       C  0.81483111  0.53284835  0.44257441     0.10400
C2948       C  0.81537854  0.53033242  0.39981837    -0.16800
C2949       C  0.80856922  0.55991991  0.37164520    -0.27300
C2950       C  0.80672463  0.59407751  0.38701150     0.18800
C2951       C  0.81079727  0.57126651  0.50411054     0.12700
C2952       C  0.81160811  0.49802648  0.46974610    -0.11600
H2953       H  0.81576642  0.50379873  0.38892661     0.13000
C2954       C  0.79675840  0.62664847  0.35997715    -0.22400
H2955       H  0.80940889  0.62353675  0.44084650     0.08700
C2956       C  0.83395931  0.55450392  0.53265383     0.05000
C2957       C  0.82521763  0.55402875  0.57548534    -0.19700
C2958       C  0.79561987  0.57232281  0.59133738    -0.12000
C2959       C  0.77424953  0.59152380  0.56306454     0.13700
C2960       C  0.78185874  0.59053822  0.52017284    -0.22400
C2961       C  0.86779726  0.53626322  0.51935722    -0.05500
H2962       H  0.84166447  0.53895053  0.59674926     0.15200
C2963       C  0.74188869  0.61123128  0.57795531    -0.15600
H2964       H  0.76391976  0.60355267  0.49904006     0.09600
H2965       H  0.79707861  0.65125852  0.37651474     0.07400
H2966       H  0.76941977  0.62299506  0.34984089     0.08600
H2967       H  0.81584006  0.63077291  0.33246333     0.07700
H2968       H  0.80366456  0.50137656  0.50243043     0.02500
H2969       H  0.83755029  0.48442514  0.46769140     0.03000
H2970       H  0.79073602  0.48050282  0.45905352     0.06500
H2971       H  0.89064125  0.54761407  0.53387157     0.05500
H2972       H  0.87369943  0.53989644  0.48560441    -0.00300
H2973       H  0.86572655  0.50716501  0.52957332     0.01200
H2974       H  0.72851542  0.62542143  0.55197297     0.04900
H2975       H  0.74971446  0.63134586  0.59877932     0.06800
H2976       H  0.72235256  0.59178475  0.59463655     0.07700
C2977       C  0.97787720  0.56553811  0.49320813    -0.21900
C2978       C  0.95470216  0.58267006  0.46602585     0.10000
C2979       C  0.92943294  0.60672043  0.48101823     0.10400
C2980       C  0.92744499  0.61262523  0.52284350    -0.16800
C2981       C  0.94930489  0.59403074  0.55037784    -0.27300
C2982       C  0.97521497  0.57053271  0.53544005     0.18800
C2983       C  0.95718675  0.57620193  0.42168450     0.12700
C2984       C  0.90389655  0.62535110  0.45299189    -0.11600
H2985       H  0.90718555  0.63019444  0.53463936     0.13000
C2986       C  0.99960431  0.54973189  0.56325451    -0.22400
H2987       H  0.99758721  0.54763497  0.48167848     0.08700
C2988       C  0.98209645  0.59503254  0.39320227     0.05000
C2989       C  0.97807781  0.59473244  0.35084670    -0.19700
C2990       C  0.94865318  0.57749476  0.33589533    -0.12000
C2991       C  0.92564218  0.55622544  0.36442628     0.13700
C2992       C  0.93030767  0.55560320  0.40685430    -0.22400
C2993       C  0.01163113  0.61790984  0.40619681    -0.05500
H2994       H  0.99686081  0.61043294  0.32946653     0.15200
C2995       C  0.89491859  0.53592975  0.35076970    -0.15600
H2996       H  0.91125174  0.54098160  0.42866303     0.09600
H2997       H  0.02782631  0.55584011  0.55213884     0.07400
H2998       H  0.99451753  0.52058444  0.56255563     0.08600
H2999       H  0.99592815  0.55626470  0.59574114     0.07700
H3000       H  0.88624721  0.60534765  0.44113436     0.02500
H3001       H  0.91933858  0.64030332  0.42655166     0.03000
H3002       H  0.88671314  0.64435413  0.46916421     0.06500
H3003       H  0.03737370  0.60849763  0.39298492     0.05500
H3004       H  0.01297624  0.61704724  0.44008414    -0.00300
H3005       H  0.00783032  0.64615898  0.39402709     0.01200
H3006       H  0.90486578  0.51848414  0.32715078     0.04900
H3007       H  0.87550177  0.55493992  0.33751719     0.06800
H3008       H  0.88155706  0.51886788  0.37695258     0.07700
C3009       C  0.89107961  0.68288634  0.90079609    -0.21900
C3010       C  0.86021314  0.66743241  0.92221058     0.10000
C3011       C  0.83368932  0.65335332  0.89906470     0.10400
C3012       C  0.83933321  0.65345565  0.85601835    -0.16800
C3013       C  0.87113894  0.66694264  0.83491747    -0.27300
C3014       C  0.89763751  0.68166869  0.85797594     0.18800
C3015       C  0.85843019  0.66365870  0.96865870     0.12700
C3016       C  0.79957853  0.63750876  0.91935998    -0.11600
H3017       H  0.81882983  0.64238981  0.83879047     0.13000
C3018       C  0.93402857  0.69367906  0.83868195    -0.22400
H3019       H  0.91098083  0.69461289  0.91819179     0.08700
C3020       C  0.88442426  0.64387893  0.99022842     0.05000
C3021       C  0.88440412  0.64349801  0.03334336    -0.19700
C3022       C  0.85792895  0.66073123  0.05618075    -0.12000
C3023       C  0.83035758  0.67827380  0.03533158     0.13700
C3024       C  0.83139198  0.68034931  0.99175179    -0.22400
C3025       C  0.91104050  0.62132032  0.96814339    -0.05500
H3026       H  0.90446547  0.62841043  0.04959320     0.15200
C3027       C  0.79992504  0.69462358  0.05915539    -0.15600
H3028       H  0.81127005  0.69543978  0.97575780     0.09600
H3029       H  0.94631396  0.67137049  0.82317056     0.07400
H3030       H  0.95215665  0.70158986  0.86187022     0.08600
H3031       H  0.93224551  0.71695317  0.81549234     0.07700
H3032       H  0.80576105  0.61551408  0.94246152     0.02500
H3033       H  0.78233334  0.62641080  0.89707372     0.03000
H3034       H  0.78450494  0.65862074  0.93418108     0.06500
H3035       H  0.92753675  0.60528843  0.98982163     0.05500
H3036       H  0.92916404  0.63837167  0.94649396    -0.00300
H3037       H  0.89675978  0.60277520  0.95023778     0.01200
H3038       H  0.81035004  0.71585952  0.07695809     0.04900
H3039       H  0.78586852  0.67366014  0.08083010     0.06800
H3040       H  0.78010080  0.70662713  0.03843239     0.07700
C3041       C  0.84090749  0.56188016  0.01162933    -0.21900
C3042       C  0.86287590  0.53968875  0.98873417     0.10000
C3043       C  0.88470827  0.01627699  0.01516135     0.10400
C3044       C  0.87958255  0.01246454  0.05896572    -0.16800
C3045       C  0.85562817  0.53104831  0.07765813    -0.27300
C3046       C  0.83490419  0.55616771  0.05471198     0.18800
C3047       C  0.85784119  0.53975055  0.94256403     0.12700
C3048       C  0.91319308  0.99442897  0.99492070    -0.11600
H3049       H  0.89456491  0.99257137  0.07654852     0.13000
C3050       C  0.80356797  0.57520453  0.07347096    -0.22400
H3051       H  0.82531893  0.58189825  0.99546725     0.08700
C3052       C  0.82304085  0.54007155  0.92763832     0.05000
C3053       C  0.81892015  0.54219337  0.88492910    -0.19700
C3054       C  0.84737512  0.53559308  0.85629958    -0.12000
C3055       C  0.88227277  0.53540808  0.87056133     0.13700
C3056       C  0.88706701  0.53998134  0.91266186    -0.22400
C3057       C  0.78954808  0.53263214  0.95589437    -0.05500
H3058       H  0.79200132  0.54230385  0.87470725     0.15200
C3059       C  0.91439733  0.52809036  0.84254535    -0.15600
H3060       H  0.91388710  0.54235327  0.92215767     0.09600
H3061       H  0.77867910  0.56582726  0.06112350     0.07400
H3062       H  0.80620037  0.60438384  0.06449420     0.08600
H3063       H  0.80071506  0.57075072  0.10742760     0.07700
H3064       H  0.93571416  0.01225628  0.98182556     0.02500
H3065       H  0.90237823  0.98014100  0.97006296     0.03000
H3066       H  0.92439872  0.97428350  0.01744629     0.06500
H3067       H  0.76932748  0.51769136  0.94051895     0.05500
H3068       H  0.77744573  0.55804114  0.96425403    -0.00300
H3069       H  0.79502821  0.00947165  0.98108411     0.01200
H3070       H  0.91809605  0.54971330  0.81701890     0.04900
H3071       H  0.91101403  0.50189854  0.82979814     0.06800
H3072       H  0.94316060  0.02988677  0.86436438     0.07700
C3073       C  0.94591228  0.70343751  0.45554428    -0.21900
C3074       C  0.91361916  0.71884820  0.44466772     0.10000
C3075       C  0.89066181  0.73198530  0.47582885     0.10400
C3076       C  0.90260617  0.73352434  0.51583056    -0.16800
C3077       C  0.93700231  0.72214397  0.52516984    -0.27300
C3078       C  0.95754112  0.70434447  0.49542194     0.18800
C3079       C  0.90854587  0.72690070  0.39968783     0.12700
C3080       C  0.85447965  0.74603143  0.46621903    -0.11600
H3081       H  0.88660073  0.74710036  0.53837596     0.13000
C3082       C  0.99308784  0.68814882  0.50406128    -0.22400
H3083       H  0.96334721  0.69267705  0.43194283     0.08700
C3084       C  0.92457097  0.75798790  0.37806123     0.05000
C3085       C  0.92483532  0.76264113  0.33483275    -0.19700
C3086       C  0.91582748  0.73406009  0.31196617    -0.12000
C3087       C  0.89771696  0.70388568  0.33346942     0.13700
C3088       C  0.89287967  0.70141131  0.37709797    -0.22400
C3089       C  0.94592286  0.78381994  0.39993214    -0.05500
H3090       H  0.93847110  0.78606785  0.31867900     0.15200
C3091       C  0.88585801  0.67319383  0.31091137    -0.15600
H3092       H  0.87946884  0.67811345  0.39354580     0.09600
H3093       H  0.49034645  0.65355350  0.50234569     0.07400
H3094       H  0.99964993  0.68982812  0.53649745     0.08600
H3095       H  0.01442973  0.70202154  0.48300965     0.07700
H3096       H  0.83818354  0.72426673  0.45548185     0.02500
H3097       H  0.85726385  0.76850378  0.44159094     0.03000
H3098       H  0.84000290  0.75582279  0.49376074     0.06500
H3099       H  0.95502026  0.80758577  0.37894812     0.05500
H3100       H  0.96993946  0.77030513  0.41147539    -0.00300
H3101       H  0.92993728  0.79300736  0.42665563     0.01200
H3102       H  0.90897904  0.66262725  0.29344505     0.04900
H3103       H  0.86566109  0.68241639  0.28916133     0.06800
H3104       H  0.87424770  0.65083688  0.33256097     0.07700
C3105       C  0.94444918  0.88390884  0.48654193    -0.21900
C3106       C  0.95966697  0.91268351  0.46053256     0.10000
C3107       C  0.96893170  0.94454353  0.47767876     0.10400
C3108       C  0.96282836  0.94668182  0.52049144    -0.16800
C3109       C  0.94742747  0.91773793  0.54632981    -0.27300
C3110       C  0.93741281  0.88625507  0.52880692     0.18800
C3111       C  0.95901641  0.91056233  0.41532889     0.12700
C3112       C  0.98478128  0.97672546  0.45143099    -0.11600
H3113       H  0.96981465  0.97114139  0.53364159     0.13000
C3114       C  0.91726664  0.85527603  0.55294379    -0.22400
H3115       H  0.93546581  0.86019864  0.47327757     0.08700
C3116       C  0.97736698  0.88394725  0.39484887     0.05000
C3117       C  0.97112538  0.87983935  0.35357083    -0.19700
C3118       C  0.94518100  0.89997756  0.33291396    -0.12000
C3119       C  0.92673700  0.92664002  0.35386289     0.13700
C3120       C  0.93508106  0.93244690  0.39398671    -0.22400
C3121       C  0.00340864  0.85969837  0.41635885    -0.05500
H3122       H  0.98576587  0.85968035  0.33794179     0.15200
C3123       C  0.89739522  0.94851280  0.33535548    -0.15600
H3124       H  0.92102802  0.95280273  0.40997530     0.09600
H3125       H  0.93398428  0.83126698  0.55325281     0.07400
H3126       H  0.89292301  0.84879824  0.53755192     0.08600
H3127       H  0.90876117  0.86065063  0.58493917     0.07700
H3128       H  0.96550404  0.99873872  0.45234846     0.02500
H3129       H  0.99103209  0.97162238  0.41879817     0.03000
H3130       H  0.01001495  0.98536111  0.46354876     0.06500
H3131       H  0.01427887  0.83971029  0.39609387     0.05500
H3132       H  0.99030599  0.84422856  0.44397338    -0.00300
H3133       H  0.02581346  0.87588632  0.42564383     0.01200
H3134       H  0.87550683  0.93100776  0.32736704     0.04900
H3135       H  0.90826138  0.96520210  0.30730045     0.06800
H3136       H  0.88489452  0.96598038  0.35763028     0.07700
C3137       C  0.87097904  0.80562351  0.90545280    -0.21900
C3138       C  0.84728151  0.83047870  0.92098768     0.10000
C3139       C  0.82835582  0.85267989  0.89261743     0.10400
C3140       C  0.83558160  0.85101298  0.84986483    -0.16800
C3141       C  0.86179062  0.82828412  0.83434897    -0.27300
C3142       C  0.87868837  0.80430179  0.86300067     0.18800
C3143       C  0.84755349  0.83570916  0.96597680     0.12700
C3144       C  0.80066724  0.87871430  0.90606177    -0.11600
H3145       H  0.82170221  0.86890000  0.82860337     0.13000
C3146       C  0.90517295  0.77710899  0.84973518    -0.22400
H3147       H  0.88509918  0.78819110  0.92689822     0.08700
C3148       C  0.84411254  0.80679458  0.99738537     0.05000
C3149       C  0.85145610  0.81231980  0.03811669    -0.19700
C3150       C  0.85982867  0.84656059  0.04897098    -0.12000
C3151       C  0.86134412  0.87582509  0.01815741     0.13700
C3152       C  0.85630941  0.86985057  0.97708945    -0.22400
C3153       C  0.83135518  0.77010735  0.98949858    -0.05500
H3154       H  0.84896742  0.79003893  0.06190368     0.15200
C3155       C  0.86890598  0.91348303  0.02812520    -0.15600
H3156       H  0.85944513  0.89208898  0.95335899     0.09600
H3157       H  0.91275746  0.75867693  0.87622286     0.07400
H3158       H  0.93022085  0.79050441  0.83578305     0.08600
H3159       H  0.89290225  0.76091303  0.82744004     0.07700
H3160       H  0.80950645  0.90643757  0.89465287     0.02500
H3161       H  0.79548576  0.87732047  0.93999379     0.03000
H3162       H  0.77515194  0.87267458  0.89268215     0.06500
H3163       H  0.80720202  0.76278393  0.01021073     0.05500
H3164       H  0.85273894  0.75062176  0.99605816    -0.00300
H3165       H  0.82372932  0.76844116  0.95750720     0.01200
H3166       H  0.86956528  0.93249570  0.00002009     0.04900
H3167       H  0.89505726  0.91479286  0.04194744     0.06800
H3168       H  0.84747069  0.92244458  0.04977803     0.07700
C3169       C  0.78014166  0.86752215  0.43383810    -0.21900
C3170       C  0.81547002  0.86121546  0.44338769     0.10000
C3171       C  0.84164806  0.85916428  0.41026132     0.10400
C3172       C  0.83385924  0.87173629  0.36977573    -0.16800
C3173       C  0.79953540  0.88348923  0.36135111    -0.27300
C3174       C  0.77161716  0.87666466  0.39306057     0.18800
C3175       C  0.82420781  0.86338908  0.48733031     0.12700
C3176       C  0.87747180  0.84321362  0.41663993    -0.11600
H3177       H  0.85502291  0.87350531  0.34541474     0.13000
C3178       C  0.73265600  0.88064792  0.38521428    -0.22400
H3179       H  0.75918561  0.86705099  0.45852225     0.08700
C3180       C  0.84417593  0.89293726  0.49827056     0.05000
C3181       C  0.84394224  0.90017476  0.53977150    -0.19700
C3182       C  0.82039502  0.88186967  0.57016005    -0.12000
C3183       C  0.80309852  0.85035215  0.56026776     0.13700
C3184       C  0.80559878  0.84118733  0.51913379    -0.22400
C3185       C  0.86230880  0.91960004  0.46601122    -0.05500
H3186       H  0.85709047  0.92447099  0.54714886     0.15200
C3187       C  0.77844921  0.82838450  0.59141760    -0.15600
H3188       H  0.79002541  0.81859310  0.51120784     0.09600
H3189       H  0.72184562  0.90442645  0.39942103     0.07400
H3190       H  0.71743806  0.85637250  0.39901321     0.08600
H3191       H  0.72824426  0.88329890  0.35183761     0.07700
H3192       H  0.88037986  0.82010268  0.39785357     0.02500
H3193       H  0.88038385  0.83363834  0.44945529     0.03000
H3194       H  0.89904563  0.86289093  0.40586735     0.06500
H3195       H  0.87491672  0.94227220  0.47967976     0.05500
H3196       H  0.84281336  0.93058146  0.44426412    -0.00300
H3197       H  0.88352931  0.90616730  0.44876657     0.01200
H3198       H  0.75062940  0.83013290  0.58187191     0.04900
H3199       H  0.77909237  0.83749141  0.62276358     0.06800
H3200       H  0.78665895  0.79993777  0.59321064     0.07700
C3201       C  0.66557678  0.91332682  0.48573351    -0.21900
C3202       C  0.63199849  0.91719288  0.46967847     0.10000
C3203       C  0.60213514  0.92449458  0.49620332     0.10400
C3204       C  0.60629320  0.92697296  0.53827496    -0.16800
C3205       C  0.63967924  0.92259781  0.55454130    -0.27300
C3206       C  0.66982490  0.91608771  0.52782020     0.18800
C3207       C  0.62823028  0.91179971  0.42557248     0.12700
C3208       C  0.56565531  0.92896854  0.48043934    -0.11600
H3209       H  0.58321095  0.93172576  0.55880467     0.13000
C3210       C  0.70626349  0.91101823  0.54368256    -0.22400
H3211       H  0.68840203  0.90758416  0.46537172     0.08700
C3212       C  0.64011453  0.93749988  0.39293048     0.05000
C3213       C  0.63367172  0.93144023  0.35223845    -0.19700
C3214       C  0.61704273  0.89959751  0.34267080    -0.12000
C3215       C  0.60776313  0.87265155  0.37544998     0.13700
C3216       C  0.61270580  0.87958950  0.41634199    -0.22400
C3217       C  0.66001146  0.97138608  0.39963131    -0.05500
H3218       H  0.64230584  0.95184506  0.32770496     0.15200
C3219       C  0.59431945  0.83586166  0.36807405    -0.15600
H3220       H  0.60496428  0.85940517  0.44147693     0.09600
H3221       H  0.71466912  0.93619526  0.55575303     0.07400
H3222       H  0.72655178  0.90483618  0.51899865     0.08600
H3223       H  0.70556100  0.88867433  0.56861191     0.07700
H3224       H  0.55629466  0.90317276  0.47077948     0.02500
H3225       H  0.56660574  0.94969917  0.45381544     0.03000
H3226       H  0.54599416  0.93710843  0.50468395     0.06500
H3227       H  0.64572550  0.99493618  0.38624712     0.05500
H3228       H  0.68718087  0.97124619  0.38379608    -0.00300
H3229       H  0.66284496  0.97459893  0.43265842     0.01200
H3230       H  0.58884752  0.81840912  0.39732576     0.04900
H3231       H  0.56929326  0.83774457  0.35201863     0.06800
H3232       H  0.61466388  0.82256267  0.34890485     0.07700
C3233       C  0.68431854  0.80334886  0.91135203    -0.21900
C3234       C  0.69162670  0.83499719  0.92906469     0.10000
C3235       C  0.69833139  0.86723076  0.90356497     0.10400
C3236       C  0.69805866  0.86684571  0.86058846    -0.16800
C3237       C  0.68984661  0.83532955  0.84271017    -0.27300
C3238       C  0.68254929  0.80318142  0.86856741     0.18800
C3239       C  0.69192622  0.83380393  0.97447839     0.12700
C3240       C  0.70440726  0.90220417  0.92175023    -0.11600
H3241       H  0.70265291  0.89159466  0.84097359     0.13000
C3242       C  0.67314348  0.76849016  0.85151694    -0.22400
H3243       H  0.67936310  0.77876737  0.93128492     0.08700
C3244       C  0.66009843  0.83004101  0.00027053     0.05000
C3245       C  0.66183357  0.83062523  0.04304311    -0.19700
C3246       C  0.69443183  0.83663763  0.06016785    -0.12000
C3247       C  0.72625620  0.84024997  0.03422236     0.13700
C3248       C  0.72466812  0.83764682  0.99181753    -0.22400
C3249       C  0.62427249  0.82718421  0.98253601    -0.05500
H3250       H  0.63737452  0.82865029  0.06288418     0.15200
C3251       C  0.76190167  0.84711218  0.05089554    -0.15600
H3252       H  0.74895098  0.83977525  0.97177300     0.09600
H3253       H  0.67006189  0.74602759  0.87620401     0.07400
H3254       H  0.69450416  0.76163219  0.82843560     0.08600
H3255       H  0.64726262  0.77071764  0.83707732     0.07700
H3256       H  0.72849498  0.90080338  0.93965497     0.02500
H3257       H  0.68089139  0.90801888  0.94249810     0.03000
H3258       H  0.70839112  0.92487088  0.89743013     0.06500
H3259       H  0.60215011  0.82634434  0.00693171     0.05500
H3260       H  0.62262231  0.80237116  0.96659246    -0.00300
H3261       H  0.62039466  0.85084891  0.96026029     0.01200
H3262       H  0.78380370  0.84790295  0.02621651     0.04900
H3263       H  0.76743883  0.82552414  0.07517268     0.06800
H3264       H  0.76223470  0.87344281  0.06386171     0.07700
C3265       C  0.98494827  0.90828965  0.97074257    -0.21900
C3266       C  0.49763677  0.88251235  0.94096323     0.10000
C3267       C  0.48135318  0.84952987  0.95772231     0.10400
C3268       C  0.48366148  0.83805849  0.99979698    -0.16800
C3269       C  0.50284187  0.85785699  0.02580496    -0.27300
C3270       C  0.99043744  0.89818252  0.01271336     0.18800
C3271       C  0.50362418  0.89095088  0.89500931     0.12700
C3272       C  0.46451728  0.82448780  0.93061483    -0.11600
H3273       H  0.47324345  0.81172922  0.01166356     0.13000
C3274       C  0.00181838  0.92614587  0.03965599    -0.22400
H3275       H  0.98920143  0.93598137  0.95840354     0.08700
C3276       C  0.95523778  0.89012915  0.87107968     0.05000
C3277       C  0.96333638  0.88443949  0.82925421    -0.19700
C3278       C  0.51321457  0.87800071  0.81078626    -0.12000
C3279       C  0.54322990  0.88158380  0.83443953     0.13700
C3280       C  0.53795014  0.88624717  0.87669471    -0.22400
C3281       C  0.91711466  0.89157213  0.88769917    -0.05500
H3282       H  0.94204330  0.87727685  0.81057331     0.15200
C3283       C  0.58079941  0.87705574  0.81666179    -0.15600
H3284       H  0.56045720  0.88383381  0.89585918     0.09600
H3285       H  0.98259353  0.92616427  0.06709990     0.07400
H3286       H  0.00251659  0.95341674  0.02303558     0.08600
H3287       H  0.02893405  0.92037095  0.04989930     0.07700
H3288       H  0.48461045  0.81693519  0.90647171     0.02500
H3289       H  0.44187578  0.83754287  0.91558393     0.03000
H3290       H  0.45399314  0.79948753  0.94853657     0.06500
H3291       H  0.91132349  0.86896788  0.91159169     0.05500
H3292       H  0.89843575  0.89008915  0.86298358    -0.00300
H3293       H  0.91261326  0.91718893  0.90172246     0.01200
H3294       H  0.59757549  0.90037300  0.82265175     0.04900
H3295       H  0.58183821  0.87597420  0.78280664     0.06800
H3296       H  0.59218440  0.85215946  0.83121031     0.07700
C3297       C  0.60853657  0.71369290  0.48307428    -0.21900
C3298       C  0.63800159  0.70390448  0.45778474     0.10000
C3299       C  0.66832797  0.68977129  0.47658430     0.10400
C3300       C  0.66994773  0.69010367  0.51953452    -0.16800
C3301       C  0.64294373  0.70608208  0.54333121    -0.27300
C3302       C  0.61017851  0.71344853  0.52579823     0.18800
C3303       C  0.63590439  0.71009990  0.41224166     0.12700
C3304       C  0.70006743  0.67607671  0.45227395    -0.11600
H3305       H  0.69495185  0.68366226  0.53305517     0.13000
C3306       C  0.57874212  0.72739149  0.55037714    -0.22400
H3307       H  0.58465323  0.72345254  0.46913302     0.08700
C3308       C  0.60829742  0.69409569  0.39284017     0.05000
C3309       C  0.60347459  0.70449672  0.35158793    -0.19700
C3310       C  0.62267055  0.73364625  0.32962480    -0.12000
C3311       C  0.65228862  0.74777672  0.34749660     0.13700
C3312       C  0.65865324  0.73581760  0.38879525    -0.22400
C3313       C  0.58202144  0.66721175  0.41508324    -0.05500
H3314       H  0.58226902  0.69123412  0.33747684     0.15200
C3315       C  0.67667327  0.77549321  0.32334431    -0.15600
H3316       H  0.68018408  0.74792645  0.40349992     0.09600
H3317       H  0.55458283  0.71114163  0.54649151     0.07400
H3318       H  0.57406843  0.75576307  0.53927438     0.08600
H3319       H  0.58282107  0.72570813  0.58383445     0.07700
H3320       H  0.72402071  0.69284337  0.45592686     0.02500
H3321       H  0.69609850  0.67640312  0.41888128     0.03000
H3322       H  0.70515824  0.64797953  0.46413118     0.06500
H3323       H  0.58122421  0.64324636  0.39787119     0.05500
H3324       H  0.55502258  0.67903081  0.41680676    -0.00300
H3325       H  0.58906304  0.65831608  0.44660568     0.01200
H3326       H  0.66152542  0.79941141  0.31272710     0.04900
H3327       H  0.68928935  0.76393982  0.29585291     0.06800
H3328       H  0.69820980  0.78422650  0.34209947     0.07700
loop_ 
_geom_bond_atom_site_label_1 
_geom_bond_atom_site_label_2 
_geom_bond_distance 
_geom_bond_site_symmetry_2 
_ccdc_geom_bond_type 
N1            C5   1.367       .  A
N1            C2   1.365       .  A
N1           C62   1.469       .  S
C2            C3   1.380       .  A
C2          C814   1.497       .  S
C3            C4   1.366       .  A
C3            H6   1.082       .  S
C4            C5   1.391       .  A
C4            H7   1.083       .  S
C5          C308   1.508       .  S
N8           C12   1.368       .  A
N8            C9   1.363       .  A
N8          C272   1.458       .  S
C9           C10   1.383       .  A
C9          C805   1.465       .  S
C10          C11   1.355       .  A
C10          H13   1.083       .  S
C11          C12   1.379       .  A
C11          H14   1.083       .  S
C12          C43   1.461       .  S
N15          C19   1.379       .  A
N15          C16   1.371       .  A
N15        C1766   1.474   1_455  S
C16          C17   1.377       .  A
C16         C782   1.485       .  S
C17          C18   1.353       .  A
C17          H20   1.083       .  S
C18          C19   1.390       .  A
C18          H21   1.080       .  S
C19          C42   1.518       .  S
N22          C26   1.376       .  A
N22          C23   1.373       .  A
N22        C1799   1.455   1_455  S
C23          C24   1.380       .  A
C23         C773   1.489   1_455  S
C24          C25   1.359       .  A
C24          H27   1.083       .  S
C25          C26   1.385       .  A
C25          H28   1.083       .  S
C26          C58   1.502       .  S
O29         Ni35   1.925       .  S
O29          C50   1.276       .  A
O30         Ni53   1.899       .  S
O30          C39   1.271       .  A
O31         Ni35   1.861       .  S
O31         Ni53   1.873       .  S
O31         Ni47   1.889       .  S
O31          H54   0.967       .  S
C32         C245   1.476       .  S
C32          O49   1.278       .  A
C32          O41   1.273       .  A
O33         Ni52   1.936       .  S
O33          C39   1.276       .  A
O34         Ni52   1.901       .  S
O34          C36   1.274       .  A
Ni35         O38   1.913       .  S
Ni35         O40   1.912       .  S
C36          C92   1.520       .  S
C36          O46   1.283       .  A
O37         Ni53   1.920       .  S
O37          C43   1.284       .  A
O38          C43   1.277       .  A
C39         C709   1.476       .  S
O40          C42   1.275       .  A
O41         Ni52   1.915       .  S
C42          O48   1.279       .  A
H44          O45   0.967       .  S
O45         Ni53   1.909       .  S
O45         Ni47   1.898       .  S
O45         Ni52   1.880       .  S
O46         Ni47   1.990       .  S
Ni47         O51   1.905       .  S
Ni47         O49   1.915       .  S
O48         Ni53   1.974       .  S
C50         C741   1.492       .  S
C50          O51   1.280       .  A
O55         Ni61   1.939       .  S
O55          C76   1.275       .  A
O56         Ni79   1.896       .  S
O56          C65   1.272       .  A
O57         Ni61   1.879       .  S
O57         Ni79   1.893       .  S
O57         Ni73   1.891       .  S
O57          H80   0.967       .  S
C58          O75   1.275       .  A
C58          O67   1.282       .  A
O59         Ni78   1.948       .  S
O59          C65   1.279       .  A
O60         Ni78   1.925       .  S
O60          C62   1.281       .  A
Ni61         O64   1.921       .  S
Ni61         O66   1.906       .  S
C62          O72   1.272       .  A
O63         Ni79   1.920       .  S
O63          C69   1.281       .  A
O64          C69   1.276       .  A
C65         C718   1.496       .  S
O66          C68   1.275       .  A
O67         Ni78   1.958       .  S
C68         N248   1.462       .  S
C68          O74   1.277       .  A
C69          C85   1.478       .  S
H70          O71   0.965       .  S
O71         Ni79   1.904       .  S
O71         Ni73   1.891       .  S
O71         Ni78   1.883       .  S
O72         Ni73   1.948       .  S
Ni73         O77   1.885       .  S
Ni73         O75   1.905       .  S
O74         Ni79   1.964       .  S
C76         C750   1.464       .  S
C76          O77   1.261       .  A
N81          C85   1.366       .  A
N81          C82   1.366       .  A
N81         C124   1.459       .  S
C82          C83   1.389       .  A
C82         C677   1.497       .  S
C83          C84   1.366       .  A
C83          H86   1.083       .  S
C84          C85   1.375       .  A
C84          H87   1.082       .  S
N88          C92   1.387       .  A
N88          C89   1.378       .  A
N88         C108   1.465       .  S
C89          C90   1.372       .  A
C89         C686   1.487       .  S
C90          C91   1.338       .  A
C90          H93   1.083       .  S
C91          C92   1.391       .  A
C91          H94   1.083       .  S
O95        Ni101   1.935       .  S
O95         C116   1.277       .  A
O96        Ni119   1.896       .  S
O96         C105   1.272       .  A
O97        Ni101   1.892       .  S
O97        Ni119   1.882       .  S
O97        Ni113   1.914       .  S
O97         H120   0.966       .  S
C98         C158   1.497       .  S
C98         O115   1.281       .  A
C98         O107   1.279       .  A
O99        Ni118   1.941       .  S
O99         C105   1.281       .  A
O100       Ni118   1.929       .  S
O100        C102   1.280       .  A
Ni101       O104   1.938       .  S
Ni101       O106   1.927       .  S
C102       N1679   1.475       .  S
C102        O112   1.284       .  A
O103       Ni119   1.924       .  S
O103        C109   1.283       .  A
O104        C109   1.277       .  A
C105        C645   1.478       .  S
O106        C108   1.277       .  A
O107       Ni118   1.943       .  S
C108        O114   1.284       .  A
C109        C165   1.496       .  S
H110        O111   0.966       .  S
O111       Ni119   1.914       .  S
O111       Ni113   1.884       .  S
O111       Ni118   1.888       .  S
O112       Ni113   1.983       .  S
Ni113       O117   1.892       .  S
Ni113       O115   1.927       .  S
O114       Ni119   1.978       .  S
C116        C613   1.464       .  S
C116        O117   1.272       .  A
O121       Ni127   1.915       .  S
O121        C142   1.267       .  A
O122       Ni145   1.894       .  S
O122        C131   1.264       .  A
O123       Ni127   1.910       .  S
O123       Ni145   1.928       .  S
O123       Ni139   1.917       .  S
O123        H146   0.967       .  S
C124        O141   1.270       .  A
C124        O133   1.272       .  A
O125       Ni144   1.920       .  S
O125        C131   1.267       .  A
O126       Ni144   1.918       .  S
O126        C128   1.271       .  A
Ni127       O130   1.932       .  S
Ni127       O132   1.919       .  S
C128        C172   1.516       .  S
C128        O138   1.281       .  A
O129       Ni145   1.947       .  S
O129        C135   1.277       .  A
O130        C135   1.271       .  A
C131        C654   1.465       .  S
O132        C134   1.266       .  A
O133       Ni144   1.937       .  S
C134        C151   1.507       .  S
C134        O140   1.271       .  A
C135       N1686   1.458       .  S
H136        O137   0.966       .  S
O137       Ni145   1.939       .  S
O137       Ni139   1.933       .  S
O137       Ni144   1.913       .  S
O138       Ni139   1.991       .  S
Ni139       O143   1.898       .  S
Ni139       O141   1.936       .  S
O140       Ni145   1.972       .  S
C142        C622   1.488       .  S
C142        O143   1.265       .  A
N147        C151   1.373       .  A
N147        C148   1.373       .  A
N147        C208   1.471       .  S
C148        C149   1.386       .  A
C148        C590   1.530       .  S
C149        C150   1.366       .  A
C149        H152   1.073       .  S
C150        C151   1.383       .  A
C150        H153   1.079       .  S
N154        C158   1.374       .  A
N154        C155   1.364       .  A
N154        C189   1.447       .  S
C155        C156   1.380       .  A
C155        C581   1.487       .  S
C156        C157   1.367       .  A
C156        H159   1.083       .  S
C157        C158   1.384       .  A
C157        H160   1.083       .  S
N161        C162   1.379       .  A
N161        C997   1.376   1_545  A
N161        C178   1.461       .  S
C162        C995   1.386   1_545  A
C162        C558   1.511       .  S
C163        C164   1.352       .  A
C163        C994   1.387       .  A
C163        H166   1.082       .  S
C164        C165   1.376       .  A
C164        H167   1.082       .  S
C165        N993   1.379       .  A
N168        C169   1.377       .  A
N168       C1004   1.381   1_545  A
N168        C214   1.477       .  S
C169       C1002   1.369       .  A
C169        C549   1.504       .  S
C170        C171   1.366       .  A
C170       C1001   1.371       .  A
C170        H173   1.080       .  S
C171        C172   1.394       .  A
C171        H174   1.083       .  S
C172       N1000   1.380       .  A
O175       Ni181   1.911       .  S
O175        C196   1.268       .  A
O176       Ni199   1.900       .  S
O176        C185   1.268       .  A
O177       Ni181   1.873       .  S
O177       Ni199   1.900       .  S
O177       Ni193   1.917       .  S
O177        H200   0.966       .  S
C178        O195   1.276       .  A
C178        O187   1.281       .  A
O179       Ni198   1.928       .  S
O179        C185   1.272       .  A
O180       Ni198   1.905       .  S
O180        C182   1.266       .  A
Ni181       O184   1.918       .  S
Ni181       O186   1.919       .  S
C182        N234   1.484       .  S
C182        O192   1.292       .  A
O183       Ni199   1.955       .  S
O183        C189   1.286       .  A
O184        C189   1.273       .  A
C185        C485   1.465       .  S
O186        C188   1.279       .  A
O187       Ni198   1.952       .  S
C188       C1923   1.543       .  S
C188        O194   1.279       .  A
H190        O191   0.966       .  S
O191       Ni199   1.934       .  S
O191       Ni193   1.929       .  S
O191       Ni198   1.886       .  S
O192       Ni193   2.023       .  S
Ni193       O197   1.934       .  S
Ni193       O195   1.936       .  S
O194       Ni199   1.978       .  S
C196        C517   1.502       .  S
C196        O197   1.280       .  A
O201       Ni207   1.933       .  S
O201        C222   1.271       .  A
O202       Ni225   1.917       .  S
O202        C211   1.277       .  A
O203       Ni207   1.881       .  S
O203       Ni225   1.916       .  S
O203       Ni219   1.921       .  S
O203        H226   0.966       .  S
C204       N1926   1.461       .  S
C204        O221   1.280       .  A
C204        O213   1.274       .  A
O205       Ni224   1.909       .  S
O205        C211   1.270       .  A
O206       Ni224   1.911       .  S
O206        C208   1.271       .  A
Ni207       O210   1.925       .  S
Ni207       O212   1.917       .  S
C208        O218   1.282       .  A
O209       Ni225   1.972       .  S
O209        C215   1.284       .  A
O210        C215   1.277       .  A
C211        C494   1.487       .  S
O212        C214   1.275       .  A
O213       Ni224   1.922       .  S
C214        O220   1.286       .  A
C215        N227   1.466       .  S
H216        O217   0.966       .  S
O217       Ni225   1.919       .  S
O217       Ni219   1.901       .  S
O217       Ni224   1.886       .  S
O218       Ni219   1.976       .  S
Ni219       O223   1.905       .  S
Ni219       O221   1.951       .  S
O220       Ni225   1.989       .  S
C222        C526   1.475       .  S
C222        O223   1.265       .  A
N227        C231   1.369       .  A
N227        C228   1.384       .  A
C228        C229   1.393       .  A
C228        C453   1.515       .  S
C229        C230   1.352       .  A
C229        H232   1.082       .  S
C230        C231   1.369       .  A
C230        H233   1.083       .  S
C231        C298   1.474       .  S
N234        C238   1.379       .  A
N234        C235   1.373       .  A
C235        C236   1.375       .  A
C235        C462   1.500       .  S
C236        C237   1.368       .  A
C236        H239   1.079       .  S
C237        C238   1.397       .  A
C237        H240   1.084       .  S
C238        C282   1.531       .  S
N241        C242   1.364       .  A
N241       C1077   1.368   1_545  A
N241        C283   1.454       .  S
C242       C1075   1.387   1_545  A
C242        C421   1.487       .  S
C243        C244   1.360       .  A
C243       C1074   1.388       .  A
C243        H246   1.083       .  S
C244        C245   1.377       .  A
C244        H247   1.083       .  S
C245       N1073   1.366       .  A
N248        C249   1.362       .  A
N248       C1084   1.373       .  A
C249       C1082   1.376       .  A
C249        C430   1.477       .  S
C250        C251   1.364       .  A
C250       C1081   1.373   1_545  A
C250        H253   1.082       .  S
C251        C252   1.390       .  A
C251        H254   1.083       .  S
C252       N1080   1.374   1_545  A
C252        C302   1.510       .  S
N255        C259   1.382       .  A
N255        C256   1.373       .  A
N255        C276   1.486       .  S
C256        C257   1.370       .  A
C256        C389   1.496       .  S
C257       C1922   1.364       .  A
C257       H1924   1.079       .  S
C258       C1921   1.370       .  A
C258       C1923   1.397       .  A
C258        H261   1.084       .  S
C259       C1922   1.397       .  A
C259       C1852   1.540   1_455  S
H260       C1921   1.074       .  S
N262        C266   1.368       .  A
N262        C263   1.370       .  A
N262       C1868   1.453   1_455  S
C263        C264   1.387       .  A
C263        C398   1.496   1_455  S
C264        C265   1.362       .  A
C264        H267   1.083       .  S
C265        C266   1.381       .  A
C265        H268   1.083       .  S
C266        C309   1.500       .  S
O269       Ni275   1.939       .  S
O269        C290   1.276       .  A
O270       Ni293   1.907       .  S
O270        C279   1.275       .  A
O271       Ni275   1.883       .  S
O271       Ni293   1.910       .  S
O271       Ni287   1.909       .  S
O271        H294   0.966       .  S
C272        O289   1.275       .  A
C272        O281   1.277       .  A
O273       Ni292   1.928       .  S
O273        C279   1.275       .  A
O274       Ni292   1.917       .  S
O274        C276   1.274       .  A
Ni275       O278   1.925       .  S
Ni275       O280   1.923       .  S
C276        O286   1.289       .  A
O277       Ni293   1.964       .  S
O277        C283   1.288       .  A
O278        C283   1.275       .  A
C279        C357   1.477       .  S
O280        C282   1.279       .  A
O281       Ni292   1.951       .  S
C282        O288   1.279       .  A
H284        O285   0.966       .  S
O285       Ni293   1.926       .  S
O285       Ni287   1.906       .  S
O285       Ni292   1.896       .  S
O286       Ni287   2.009       .  S
Ni287       O291   1.909       .  S
Ni287       O289   1.926       .  S
O288       Ni293   1.972       .  S
C290        C334   1.498       .  S
C290        O291   1.271       .  A
O295       Ni301   1.957       .  S
O295        C316   1.276       .  A
O296       Ni319   1.900       .  S
O296        C305   1.271       .  A
O297       Ni301   1.898       .  S
O297       Ni319   1.915       .  S
O297       Ni313   1.903       .  S
O297        H320   0.967       .  S
C298        O315   1.269       .  A
C298        O307   1.285       .  A
O299       Ni318   1.953       .  S
O299        C305   1.279       .  A
O300       Ni318   1.911       .  S
O300        C302   1.269       .  A
Ni301       O304   1.950       .  S
Ni301       O306   1.890       .  S
C302        O312   1.272       .  A
O303       Ni319   1.903       .  S
O303        C309   1.269       .  A
O304        C309   1.280       .  A
C305        C366   1.483       .  S
O306        C308   1.274       .  A
O307       Ni318   1.970       .  S
C308        O314   1.279       .  A
H310        O311   0.966       .  S
O311       Ni319   1.905       .  S
O311       Ni313   1.910       .  S
O311       Ni318   1.898       .  S
O312       Ni313   1.978       .  S
Ni313       O317   1.897       .  S
Ni313       O315   1.884       .  S
O314       Ni319   1.962       .  S
C316        C325   1.481       .  S
C316        O317   1.262       .  A
C321        C322   1.403       .  A
C321        C326   1.404       .  A
C321        H331   1.082       .  S
C322        C323   1.415       .  A
C322        C327   1.493       .  S
C323        C324   1.412       .  A
C323        C328   1.508       .  S
C324        C325   1.405       .  A
C324        H329   1.084       .  S
C325        C326   1.417       .  A
C326        C330   1.509       .  S
C327        C332   1.412       .  A
C327        C336   1.404       .  A
C328        H344   1.106       .  S
C328        H345   1.109       .  S
C328        H346   1.111       .  S
C330        H341   1.111       .  S
C330        H342   1.108       .  S
C330        H343   1.107       .  S
C332        C333   1.406       .  A
C332        C337   1.508       .  S
C333        C334   1.411       .  A
C333        H338   1.083       .  S
C334        C335   1.419       .  A
C335        C336   1.407       .  A
C335        C339   1.506       .  S
C336        H340   1.082       .  S
C337        H347   1.111       .  S
C337        H348   1.109       .  S
C337        H349   1.108       .  S
C339        H350   1.108       .  S
C339        H351   1.109       .  S
C339        H352   1.108       .  S
C353        C354   1.403       .  A
C353        C358   1.412       .  A
C353        H363   1.083       .  S
C354        C355   1.410       .  A
C354        C359   1.488       .  S
C355        C356   1.394       .  A
C355        C360   1.490       .  S
C356        C357   1.393       .  A
C356        H361   1.085       .  S
C357        C358   1.418       .  A
C358        C362   1.506       .  S
C359        C364   1.409       .  A
C359        C368   1.402       .  A
C360        H376   1.108       .  S
C360        H377   1.108       .  S
C360        H378   1.109       .  S
C362        H373   1.108       .  S
C362        H374   1.107       .  S
C362        H375   1.110       .  S
C364        C365   1.411   1_556  A
C364        C369   1.500       .  S
C365        C366   1.404       .  A
C365        H370   1.083       .  S
C366        C367   1.418       .  A
C367        C368   1.402   1_554  A
C367        C371   1.507       .  S
C368        H372   1.085       .  S
C369        H379   1.104       .  S
C369        H380   1.110       .  S
C369        H381   1.108       .  S
C371        H382   1.108       .  S
C371        H383   1.104       .  S
C371        H384   1.111       .  S
C385        C386   1.401       .  A
C385        C390   1.403       .  A
C385        H395   1.085       .  S
C386        C387   1.419       .  A
C386        C391   1.501       .  S
C387        C388   1.416       .  A
C387        C392   1.503   1_455  S
C388        C389   1.406       .  A
C388        H393   1.084       .  S
C389        C390   1.420       .  A
C390        C394   1.507       .  S
C391        C396   1.414       .  A
C391        C400   1.406   1_455  A
C392        H408   1.111       .  S
C392        H409   1.105       .  S
C392        H410   1.109       .  S
C394        H405   1.111       .  S
C394        H406   1.110       .  S
C394        H407   1.105       .  S
C396        C397   1.414   1_556  A
C396        C401   1.506       .  S
C397        C398   1.409   1_455  A
C397        H402   1.084       .  S
C398       C2063   1.415   1_554  A
C399       C2062   1.416   1_556  A
C399       C2064   1.409       .  A
C399        C403   1.507   1_556  S
C400       C2063   1.407       .  A
C400       H2068   1.082       .  S
C401        H411   1.109       .  S
C401        H412   1.110       .  S
C401        H413   1.108       .  S
C403        H414   1.111   1_554  S
C403        H415   1.110       .  S
C403        H416   1.110       .  S
H404       C2064   1.081       .  S
C417        C422   1.409       .  A
C417       C1250   1.398       .  A
C417        H427   1.084       .  S
C418        C419   1.410       .  A
C418       C1249   1.396   1_545  A
C418       C1255   1.477   1_545  S
C419        C420   1.402       .  A
C419        C424   1.514       .  S
C420        C421   1.405       .  A
C420        H425   1.083       .  S
C421       C1254   1.424       .  A
C422       C1253   1.424       .  A
C422        C426   1.507       .  S
C423        C432   1.400   1_556  A
C423       C1260   1.408   1_556  A
C423       C1250   1.479       .  S
C424        H440   1.105       .  S
C424        H441   1.111       .  S
C424        H442   1.098       .  S
C426        H437   1.111       .  S
C426        H438   1.109       .  S
C426        H439   1.110       .  S
C428        C429   1.404   1_545  A
C428       C1255   1.408   1_544  A
C428        C433   1.504       .  S
C429       C1262   1.404       .  A
C429        H434   1.084   1_565  S
C430        C431   1.417       .  A
C430       C1261   1.406       .  A
C431        C432   1.397       .  A
C431        C435   1.509       .  S
C432        H436   1.085   1_554  S
C433        H443   1.111       .  S
C433        H445   1.110       .  S
C433       H1276   1.110       .  S
C435        H446   1.105       .  S
C435        H447   1.105       .  S
C435        H448   1.111       .  S
H444       C1265   1.110       .  S
C449        C450   1.414       .  A
C449        C454   1.422       .  A
C449        H459   1.084       .  S
C450        C451   1.416       .  A
C450        C455   1.514       .  S
C451        C452   1.403       .  A
C451        C456   1.509       .  S
C452        C453   1.414       .  A
C452        H457   1.085       .  S
C453        C454   1.419       .  A
C454        C458   1.503       .  S
C455        C460   1.425       .  A
C455        C464   1.409       .  A
C456        H472   1.106       .  S
C456        H473   1.105   1_545  S
C456        H474   1.111   1_545  S
C458        H469   1.111       .  S
C458        H470   1.110       .  S
C458        H471   1.108       .  S
C460        C461   1.407       .  A
C460        C465   1.505       .  S
C461        C462   1.404       .  A
C461        H466   1.084       .  S
C462        C463   1.414       .  A
C463        C464   1.414       .  A
C463        C467   1.506       .  S
C464        H468   1.084       .  S
C465        H475   1.107       .  S
C465        H476   1.102       .  S
C465        H477   1.111       .  S
C467        H478   1.111       .  S
C467        H479   1.110       .  S
C467        H480   1.110       .  S
C481        C482   1.403       .  A
C481        C486   1.404       .  A
C481        H491   1.079       .  S
C482        C483   1.414       .  A
C482        C487   1.485       .  S
C483        C484   1.400       .  A
C483        C488   1.507       .  S
C484        C485   1.401       .  A
C484        H489   1.085       .  S
C485        C486   1.408       .  A
C486        C490   1.504       .  S
C487        C492   1.404       .  A
C487        C496   1.401       .  A
C488        H504   1.108       .  S
C488        H505   1.109       .  S
C488        H506   1.111       .  S
C490        H501   1.111       .  S
C490        H502   1.110       .  S
C490        H503   1.107       .  S
C492        C493   1.400       .  A
C492        C497   1.497       .  S
C493        C494   1.408       .  A
C493        H498   1.084       .  S
C494        C495   1.410       .  A
C495        C496   1.404       .  A
C495        C499   1.494       .  S
C496        H500   1.079       .  S
C497        H507   1.107       .  S
C497        H508   1.106       .  S
C497        H509   1.107       .  S
C499        H510   1.106       .  S
C499        H511   1.106       .  S
C499        H512   1.104       .  S
C513        C514   1.393       .  A
C513        C518   1.403       .  A
C513        H523   1.080       .  S
C514        C515   1.413       .  A
C514        C519   1.489       .  S
C515        C516   1.409       .  A
C515        C520   1.502       .  S
C516        C517   1.407       .  A
C516        H521   1.084       .  S
C517        C518   1.432       .  A
C518        C522   1.513       .  S
C519        C524   1.409       .  A
C519        C528   1.404       .  A
C520        H536   1.108       .  S
C520        H537   1.107       .  S
C520        H538   1.108       .  S
C522        H533   1.105       .  S
C522        H534   1.111       .  S
C522        H535   1.110       .  S
C524        C525   1.399   1_556  A
C524        C529   1.500       .  S
C525        C526   1.400       .  A
C525        H530   1.085       .  S
C526        C527   1.415       .  A
C527        C528   1.412   1_554  A
C527        C531   1.506       .  S
C528        H532   1.082       .  S
C529        H539   1.111       .  S
C529        H540   1.103       .  S
C529        H541   1.105       .  S
C531        H542   1.110       .  S
C531        H543   1.108       .  S
C531        H544   1.107       .  S
C545        C546   1.405   1_554  A
C545        C550   1.405       .  A
C545        H555   1.082   1_554  S
C546       C1379   1.425   1_556  A
C546        C551   1.526       .  S
C547        C548   1.422       .  A
C547       C1378   1.425   1_554  A
C547        C552   1.505   1_554  S
C548       C1381   1.408       .  A
C548        H553   1.084       .  S
C549        C550   1.421       .  A
C549       C1380   1.409       .  A
C550        C554   1.506       .  S
C551        C556   1.422       .  A
C551        C560   1.415       .  A
C552        H568   1.105       .  S
C552        H569   1.111       .  S
C552        H570   1.107   1_556  S
C554        H565   1.110       .  S
C554        H566   1.109       .  S
C554        H567   1.102       .  S
C556        C557   1.406       .  A
C556        C561   1.511       .  S
C557        C558   1.408       .  A
C557        H562   1.085       .  S
C558        C559   1.420       .  A
C559        C560   1.423       .  A
C559        C563   1.504       .  S
C560        H564   1.080       .  S
C561        H571   1.111       .  S
C561        H572   1.106       .  S
C561       H1405   1.110       .  S
C563        H574   1.107       .  S
C563        H575   1.110       .  S
C563       H1408   1.110       .  S
H573       C1393   1.111       .  S
H576       C1395   1.110       .  S
C577        C578   1.403       .  A
C577        C582   1.405       .  A
C577        H587   1.082       .  S
C578        C579   1.414       .  A
C578        C583   1.502       .  S
C579        C580   1.412       .  A
C579        C584   1.501       .  S
C580        C581   1.407       .  A
C580        H585   1.084       .  S
C581        C582   1.413       .  A
C582        C586   1.504       .  S
C583        C588   1.410       .  A
C583        C592   1.406       .  A
C584        H600   1.109       .  S
C584        H601   1.105       .  S
C584        H602   1.111       .  S
C586        H598   1.110       .  S
C586        H599   1.109       .  S
C586       H2261   1.107       .  S
C588        C589   1.402       .  A
C588        C593   1.513       .  S
C589        C590   1.416       .  A
C589        H594   1.075       .  S
C590        C591   1.429       .  A
C591        C592   1.422       .  A
C591        C595   1.504       .  S
C592        H596   1.084       .  S
C593        H603   1.110       .  S
C593        H604   1.109       .  S
C593        H605   1.110       .  S
C595        H606   1.107       .  S
C595        H607   1.109       .  S
C595        H608   1.110       .  S
H597       C2250   1.109   1_455  S
C609        C610   1.401       .  A
C609        C614   1.393       .  A
C609        H619   1.082       .  S
C610        C611   1.413       .  A
C610        C615   1.480       .  S
C611        C612   1.402       .  A
C611        C616   1.503       .  S
C612        C613   1.399       .  A
C612        H617   1.083       .  S
C613        C614   1.413       .  A
C614        C618   1.507       .  S
C615        C620   1.410       .  A
C615        C624   1.402       .  A
C616        H632   1.108       .  S
C616        H633   1.108       .  S
C616        H634   1.104       .  S
C618        H629   1.104       .  S
C618        H630   1.108       .  S
C618        H631   1.107       .  S
C620        C621   1.401       .  A
C620        C625   1.509       .  S
C621        C622   1.412       .  A
C621        H626   1.084       .  S
C622        C623   1.417       .  A
C623        C624   1.400       .  A
C623        C627   1.505       .  S
C624        H628   1.084       .  S
C625        H635   1.105       .  S
C625        H636   1.106       .  S
C625        H637   1.108       .  S
C627        H638   1.106       .  S
C627        H639   1.110       .  S
C627        H640   1.106       .  S
C641        C642   1.400       .  A
C641        C646   1.399       .  A
C641        H651   1.085       .  S
C642        C643   1.414       .  A
C642        C647   1.480       .  S
C643        C644   1.403       .  A
C643        C648   1.507       .  S
C644        C645   1.404       .  A
C644        H649   1.081       .  S
C645        C646   1.412       .  A
C646        C650   1.499       .  S
C647        C652   1.409       .  A
C647        C656   1.397       .  A
C648        H664   1.110       .  S
C648        H665   1.108       .  S
C648        H666   1.106       .  S
C650        H661   1.111       .  S
C650        H662   1.108       .  S
C650        H663   1.108       .  S
C652        C653   1.406   1_556  A
C652        C657   1.498       .  S
C653        C654   1.401       .  A
C653        H658   1.084       .  S
C654        C655   1.406       .  A
C655        C656   1.394   1_554  A
C655        C659   1.502       .  S
C656        H660   1.072       .  S
C657        H667   1.102   1_556  S
C657        H668   1.106       .  S
C657        H669   1.109       .  S
C659        H670   1.109   1_554  S
C659        H671   1.104       .  S
C659        H672   1.109       .  S
C673        C674   1.402       .  A
C673        C678   1.402       .  A
C673        H683   1.085       .  S
C674        C675   1.418       .  A
C674        C679   1.504       .  S
C675        C676   1.410       .  A
C675        C680   1.496       .  S
C676        C677   1.400       .  A
C676        H681   1.081       .  S
C677        C678   1.425       .  A
C678        C682   1.509       .  S
C679        C684   1.419       .  A
C679        C688   1.409       .  A
C680        H696   1.106       .  S
C680        H697   1.109       .  S
C680        H698   1.097       .  S
C682        H693   1.111       .  S
C682        H694   1.111       .  S
C682        H695   1.108       .  S
C684        C685   1.406       .  A
C684        C689   1.505       .  S
C685        C686   1.405       .  A
C685        H690   1.084       .  S
C686        C687   1.415       .  A
C687        C688   1.412       .  A
C687        C691   1.505       .  S
C688        H692   1.084       .  S
C689        H699   1.111       .  S
C689        H700   1.110       .  S
C689        H701   1.096       .  S
C691        H702   1.111       .  S
C691        H703   1.109       .  S
C691        H704   1.110       .  S
C705        C706   1.399       .  A
C705        C710   1.402       .  A
C705        H715   1.084       .  S
C706        C707   1.414       .  A
C706        C711   1.482       .  S
C707        C708   1.403       .  A
C707        C712   1.501       .  S
C708        C709   1.399       .  A
C708        H713   1.085       .  S
C709        C710   1.418       .  A
C710        C714   1.506       .  S
C711        C716   1.409       .  A
C711        C720   1.399       .  A
C712        H728   1.110       .  S
C712        H729   1.108       .  S
C712        H730   1.108       .  S
C714        H725   1.107       .  S
C714        H726   1.111       .  S
C714        H727   1.111       .  S
C716        C717   1.403       .  A
C716        C721   1.505       .  S
C717        C718   1.410       .  A
C717        H722   1.084       .  S
C718        C719   1.425       .  A
C719        C720   1.405       .  A
C719        C723   1.509       .  S
C720        H724   1.085       .  S
C721        H731   1.111       .  S
C721        H732   1.110       .  S
C721        H733   1.105       .  S
C723        H734   1.111       .  S
C723        H735   1.108       .  S
C723        H736   1.106       .  S
C737        C738   1.392       .  A
C737        C742   1.400       .  A
C737        H747   1.085       .  S
C738        C739   1.409       .  A
C738        C743   1.473       .  S
C739        C740   1.403       .  A
C739        C744   1.506       .  S
C740        C741   1.408       .  A
C740        H745   1.084       .  S
C741        C742   1.429       .  A
C742        C746   1.510       .  S
C743        C748   1.410       .  A
C743        C752   1.404       .  A
C744        H760   1.109       .  S
C744        H761   1.109       .  S
C744        H762   1.109       .  S
C746        H757   1.111       .  S
C746        H758   1.104       .  S
C746        H759   1.106       .  S
C748        C749   1.399   1_556  A
C748        C753   1.509       .  S
C749        C750   1.401       .  A
C749        H754   1.085       .  S
C750        C751   1.406       .  A
C751        C752   1.404   1_554  A
C751        C755   1.504       .  S
C752        H756   1.083       .  S
C753        H763   1.111       .  S
C753        H764   1.110       .  S
C753        H765   1.109       .  S
C755        H766   1.105       .  S
C755        H767   1.110       .  S
C755        H768   1.110       .  S
C769        C774   1.416   1_556  A
C769       C2434   1.407       .  A
C769        H779   1.084       .  S
C770        C771   1.419       .  A
C770       C2433   1.406   1_655  A
C770        C775   1.502       .  S
C771        C772   1.410   1_556  A
C771        C776   1.510       .  S
C772        C773   1.406       .  A
C772        H777   1.084       .  S
C773       C2438   1.418   1_655  A
C774       C2437   1.419       .  A
C774        C778   1.506       .  S
C775        C784   1.403   1_655  A
C775       C2444   1.415       .  A
C776        H792   1.110       .  S
C776        H793   1.107       .  S
C776        H794   1.110       .  S
C778        H789   1.110       .  S
C778        H790   1.111       .  S
C778        H791   1.110       .  S
C780        C781   1.410       .  A
C780       C2439   1.416       .  A
C780        C785   1.496       .  S
C781       C2446   1.401       .  A
C781        H786   1.085       .  S
C782        C783   1.418       .  A
C782       C2445   1.400   1_455  A
C783        C784   1.407       .  A
C783        C787   1.507       .  S
C784        H788   1.084       .  S
C785        H795   1.106       .  S
C785        H796   1.110       .  S
C785        H797   1.109       .  S
C787        H798   1.111       .  S
C787        H799   1.110       .  S
C787        H800   1.105       .  S
C801        C802   1.407       .  A
C801        C806   1.399       .  A
C801        H811   1.084       .  S
C802        C803   1.413       .  A
C802        C807   1.488       .  S
C803        C804   1.404       .  A
C803        C808   1.506       .  S
C804        C805   1.404       .  A
C804        H809   1.085       .  S
C805        C806   1.409       .  A
C806        C810   1.509       .  S
C807        C812   1.405       .  A
C807        C816   1.410       .  A
C808        H824   1.110       .  S
C808        H825   1.107       .  S
C808        H826   1.111       .  S
C810        H821   1.106       .  S
C810        H822   1.109       .  S
C810        H823   1.110       .  S
C812        C813   1.392       .  A
C812        C817   1.500       .  S
C813        C814   1.410       .  A
C813        H818   1.083       .  S
C814        C815   1.413       .  A
C815        C816   1.414       .  A
C815        C819   1.505       .  S
C816        H820   1.084       .  S
C817        H827   1.104       .  S
C817        H828   1.110       .  S
C817        H829   1.103       .  S
C819        H830   1.108       .  S
C819        H831   1.110       .  S
C819        H832   1.111       .  S
N833        C837   1.369       .  A
N833        C834   1.365       .  A
N833        C894   1.472       .  S
C834        C835   1.380       .  A
C834       C1646   1.493       .  S
C835        C836   1.364       .  A
C835        H838   1.077       .  S
C836        C837   1.388       .  A
C836        H839   1.082       .  S
C837       C1140   1.510       .  S
N840        C844   1.368       .  A
N840        C841   1.366       .  A
N840       C1104   1.458       .  S
C841        C842   1.382       .  A
C841       C1637   1.469       .  S
C842        C843   1.353       .  A
C842        H845   1.083       .  S
C843        C844   1.379       .  A
C843        H846   1.083       .  S
C844        C875   1.461       .  S
N847        C851   1.382       .  A
N847        C848   1.376       .  A
N847       C2598   1.473   1_455  S
C848        C849   1.376       .  A
C848       C1614   1.489   1_455  S
C849        C850   1.351       .  A
C849        H852   1.083       .  S
C850        C851   1.388       .  A
C850        H853   1.078       .  S
C851        C874   1.522       .  S
N854        C858   1.381       .  A
N854        C855   1.371       .  A
N854       C2631   1.452   1_455  S
C855        C856   1.380       .  A
C855       C1605   1.493   1_455  S
C856        C857   1.359       .  A
C856        H859   1.083       .  S
C857        C858   1.385       .  A
C857        H860   1.083       .  S
C858        C890   1.507       .  S
O861       Ni867   1.925       .  S
O861        C882   1.277       .  A
O862       Ni885   1.898       .  S
O862        C871   1.272       .  A
O863       Ni867   1.863       .  S
O863       Ni885   1.876       .  S
O863       Ni879   1.893       .  S
O863        H886   0.965       .  S
C864       C1077   1.480       .  S
C864        O881   1.280       .  A
C864        O873   1.276       .  A
O865       Ni884   1.947       .  S
O865        C871   1.279       .  A
O866       Ni884   1.907       .  S
O866        C868   1.275       .  A
Ni867       O870   1.916       .  S
Ni867       O872   1.915       .  S
C868        C924   1.524       .  S
C868        O878   1.284       .  A
O869       Ni885   1.914       .  S
O869        C875   1.282       .  A
O870        C875   1.277       .  A
C871       C1541   1.486       .  S
O872        C874   1.275       .  A
O873       Ni884   1.924       .  S
C874        O880   1.282       .  A
H876        O877   0.966       .  S
O877       Ni885   1.908       .  S
O877       Ni879   1.896       .  S
O877       Ni884   1.881       .  S
O878       Ni879   1.993       .  S
Ni879       O883   1.905       .  S
Ni879       O881   1.917       .  S
O880       Ni885   1.982       .  S
C882       C1573   1.494       .  S
C882        O883   1.279       .  A
O887       Ni893   1.938       .  S
O887        C908   1.274       .  A
O888       Ni911   1.892       .  S
O888        C897   1.271       .  A
O889       Ni893   1.883       .  S
O889       Ni911   1.895       .  S
O889       Ni905   1.900       .  S
O889        H912   0.966       .  S
C890        O907   1.278       .  A
C890        O899   1.281       .  A
O891       Ni910   1.950       .  S
O891        C897   1.280       .  A
O892       Ni910   1.917       .  S
O892        C894   1.280       .  A
Ni893       O896   1.917       .  S
Ni893       O898   1.913       .  S
C894        O904   1.274       .  A
O895       Ni911   1.934       .  S
O895        C901   1.283       .  A
O896        C901   1.274       .  A
C897       C1550   1.496       .  S
O898        C900   1.277       .  A
O899       Ni910   1.959       .  S
C900       N1080   1.463       .  S
C900        O906   1.275       .  A
C901        C917   1.484       .  S
H902        O903   0.967       .  S
O903       Ni911   1.910       .  S
O903       Ni905   1.892       .  S
O903       Ni910   1.887       .  S
O904       Ni905   1.957       .  S
Ni905       O909   1.891       .  S
Ni905       O907   1.913       .  S
O906       Ni911   1.958       .  S
C908       C1582   1.466       .  S
C908        O909   1.263       .  A
N913        C917   1.366       .  A
N913        C914   1.367       .  A
N913        C956   1.458       .  S
C914        C915   1.389       .  A
C914       C1509   1.504       .  S
C915        C916   1.368       .  A
C915        H918   1.082       .  S
C916        C917   1.376       .  A
C916        H919   1.082       .  S
N920        C924   1.390       .  A
N920        C921   1.381       .  A
N920        C940   1.466       .  S
C921        C922   1.373       .  A
C921       C1518   1.492       .  S
C922        C923   1.338       .  A
C922        H925   1.084       .  S
C923        C924   1.389       .  A
C923        H926   1.082       .  S
O927       Ni933   1.939       .  S
O927        C948   1.278       .  A
O928       Ni951   1.909       .  S
O928        C937   1.276       .  A
O929       Ni933   1.898       .  S
O929       Ni951   1.891       .  S
O929       Ni945   1.918       .  S
O929        H952   0.966       .  S
C930        C990   1.494       .  S
C930        O947   1.283       .  A
C930        O939   1.278       .  A
O931       Ni950   1.941       .  S
O931        C937   1.281       .  A
O932       Ni950   1.930       .  S
O932        C934   1.280       .  A
Ni933       O936   1.943       .  S
Ni933       O938   1.927       .  S
C934       N2511   1.479       .  S
C934        O944   1.285       .  A
O935       Ni951   1.911       .  S
O935        C941   1.279       .  A
O936        C941   1.278       .  A
C937       C1477   1.488       .  S
O938        C940   1.277       .  A
O939       Ni950   1.940       .  S
C940        O946   1.287       .  A
C941        C997   1.493       .  S
H942        O943   0.967       .  S
O943       Ni951   1.909       .  S
O943       Ni945   1.888       .  S
O943       Ni950   1.887       .  S
O944       Ni945   1.987       .  S
Ni945       O949   1.900       .  S
Ni945       O947   1.935       .  S
O946       Ni951   1.986       .  S
C948       C1445   1.470       .  S
C948        O949   1.273       .  A
O953       Ni959   1.933       .  S
O953        C974   1.273       .  A
O954       Ni977   1.900       .  S
O954        C963   1.270       .  A
O955       Ni959   1.893       .  S
O955       Ni977   1.914       .  S
O955       Ni971   1.911       .  S
O955        H978   0.966       .  S
C956        O973   1.275       .  A
C956        O965   1.283       .  A
O957       Ni976   1.935       .  S
O957        C963   1.274       .  A
O958       Ni976   1.917       .  S
O958        C960   1.266       .  A
Ni959       O962   1.922       .  S
Ni959       O964   1.918       .  S
C960       C1004   1.517       .  S
C960        O970   1.277       .  A
O961       Ni977   1.949       .  S
O961        C967   1.281       .  A
O962        C967   1.272       .  A
C963       C1486   1.470       .  S
O964        C966   1.280       .  A
O965       Ni976   1.957       .  S
C966        C983   1.524       .  S
C966        O972   1.274       .  A
C967       N2518   1.448       .  S
H968        O969   0.967       .  S
O969       Ni977   1.919       .  S
O969       Ni971   1.918       .  S
O969       Ni976   1.886       .  S
O970       Ni971   1.991       .  S
Ni971       O975   1.898       .  S
Ni971       O973   1.924       .  S
O972       Ni977   1.961       .  S
C974       C1454   1.493       .  S
C974        O975   1.265       .  A
N979        C983   1.381       .  A
N979        C980   1.372       .  A
N979       C1040   1.481       .  S
C980        C981   1.372       .  A
C980       C1422   1.502       .  S
C981        C982   1.361       .  A
C981        H984   1.076       .  S
C982        C983   1.387       .  A
C982        H985   1.084       .  S
N986        C990   1.372       .  A
N986        C987   1.364       .  A
N986       C1021   1.445       .  S
C987        C988   1.382       .  A
C987       C1413   1.492       .  S
C988        C989   1.369       .  A
C988        H991   1.083       .  S
C989        C990   1.383       .  A
C989        H992   1.083       .  S
N993        C994   1.378       .  A
N993       C1010   1.462       .  S
C994       C1390   1.509       .  S
C995        C996   1.353       .  A
C995        H998   1.082       .  S
C996        C997   1.376       .  A
C996        H999   1.083       .  S
N1000      C1001   1.377       .  A
N1000      C1046   1.478       .  S
C1001      C1381   1.504       .  S
C1002      C1003   1.366   1_545  A
C1002      H1005   1.079   1_545  S
C1003      C1004   1.394       .  A
C1003      H1006   1.083       .  S
O1007     Ni1013   1.913       .  S
O1007      C1028   1.269       .  A
O1008     Ni1031   1.905       .  S
O1008      C1017   1.269       .  A
O1009     Ni1013   1.880       .  S
O1009     Ni1031   1.904       .  S
O1009     Ni1025   1.926       .  S
O1009      H1032   0.967       .  S
C1010      O1027   1.279       .  A
C1010      O1019   1.279       .  A
O1011     Ni1030   1.926       .  S
O1011      C1017   1.272       .  A
O1012     Ni1030   1.907       .  S
O1012      C1014   1.268       .  A
Ni1013     O1016   1.925       .  S
Ni1013     O1018   1.911       .  S
C1014      N1066   1.481       .  S
C1014      O1024   1.289       .  A
O1015     Ni1031   1.940       .  S
O1015      C1021   1.281       .  A
O1016      C1021   1.274       .  A
C1017      C1317   1.468       .  S
O1018      C1020   1.278       .  A
O1019     Ni1030   1.946       .  S
C1020      C2755   1.536       .  S
C1020      O1026   1.282       .  A
H1022      O1023   0.966       .  S
O1023     Ni1031   1.927       .  S
O1023     Ni1025   1.924       .  S
O1023     Ni1030   1.887       .  S
O1024     Ni1025   2.011       .  S
Ni1025     O1029   1.927       .  S
Ni1025     O1027   1.943       .  S
O1026     Ni1031   1.982       .  S
C1028      C1349   1.498       .  S
C1028      O1029   1.278       .  A
O1033     Ni1039   1.933       .  S
O1033      C1054   1.272       .  A
O1034     Ni1057   1.922       .  S
O1034      C1043   1.279       .  A
O1035     Ni1039   1.873       .  S
O1035     Ni1057   1.913       .  S
O1035     Ni1051   1.922       .  S
O1035      H1058   0.966       .  S
C1036      N2758   1.455       .  S
C1036      O1053   1.284       .  A
C1036      O1045   1.272       .  A
O1037     Ni1056   1.908       .  S
O1037      C1043   1.272       .  A
O1038     Ni1056   1.917       .  S
O1038      C1040   1.277       .  A
Ni1039     O1042   1.925       .  S
Ni1039     O1044   1.915       .  S
C1040      O1050   1.280       .  A
O1041     Ni1057   1.973       .  S
O1041      C1047   1.285       .  A
O1042      C1047   1.278       .  A
C1043      C1326   1.486       .  S
O1044      C1046   1.275       .  A
O1045     Ni1056   1.913       .  S
C1046      O1052   1.288       .  A
C1047      N1059   1.464       .  S
H1048      O1049   0.967       .  S
O1049     Ni1057   1.919       .  S
O1049     Ni1051   1.895       .  S
O1049     Ni1056   1.874       .  S
O1050     Ni1051   1.983       .  S
Ni1051     O1055   1.903       .  S
Ni1051     O1053   1.953       .  S
O1052     Ni1057   1.994       .  S
C1054      C1358   1.473       .  S
C1054      O1055   1.266       .  A
N1059      C1063   1.366       .  A
N1059      C1060   1.383       .  A
C1060      C1061   1.394       .  A
C1060      C1285   1.516       .  S
C1061      C1062   1.353       .  A
C1061      H1064   1.082       .  S
C1062      C1063   1.369       .  A
C1062      H1065   1.083       .  S
C1063      C1130   1.470       .  S
N1066      C1070   1.377       .  A
N1066      C1067   1.369       .  A
C1067      C1068   1.374       .  A
C1067      C1294   1.496       .  S
C1068      C1069   1.368       .  A
C1068      H1071   1.075       .  S
C1069      C1070   1.396       .  A
C1069      H1072   1.084       .  S
C1070      C1114   1.525       .  S
N1073      C1074   1.360       .  A
N1073      C1115   1.452       .  S
C1074      C1253   1.485       .  S
C1075      C1076   1.361       .  A
C1075      H1078   1.083       .  S
C1076      C1077   1.377       .  A
C1076      H1079   1.082       .  S
N1080      C1081   1.358       .  A
C1081      C1262   1.473       .  S
C1082      C1083   1.362       .  A
C1082      H1085   1.082       .  S
C1083      C1084   1.389       .  A
C1083      H1086   1.081       .  S
C1084      C1134   1.506       .  S
N1087      C1091   1.380       .  A
N1087      C1088   1.370       .  A
N1087      C1108   1.486       .  S
C1088      C1089   1.375       .  A
C1088      C1221   1.499       .  S
C1089      C2754   1.369       .  A
C1089      H2756   1.079       .  S
C1090      C2753   1.363       .  A
C1090      C2755   1.397       .  A
C1090      H1093   1.084       .  S
C1091      C2754   1.398       .  A
C1091      C2684   1.540   1_455  S
H1092      C2753   1.080       .  S
N1094      C1098   1.373       .  A
N1094      C1095   1.369       .  A
N1094      C2700   1.455   1_455  S
C1095      C1096   1.385       .  A
C1095      C1230   1.495   1_455  S
C1096      C1097   1.362       .  A
C1096      H1099   1.083       .  S
C1097      C1098   1.380       .  A
C1097      H1100   1.083       .  S
C1098      C1141   1.505       .  S
O1101     Ni1107   1.940       .  S
O1101      C1122   1.276       .  A
O1102     Ni1125   1.903       .  S
O1102      C1111   1.273       .  A
O1103     Ni1107   1.882       .  S
O1103     Ni1125   1.908       .  S
O1103     Ni1119   1.903       .  S
O1103      H1126   0.965       .  S
C1104      O1121   1.272       .  A
C1104      O1113   1.279       .  A
O1105     Ni1124   1.936       .  S
O1105      C1111   1.276       .  A
O1106     Ni1124   1.918       .  S
O1106      C1108   1.275       .  A
Ni1107     O1110   1.923       .  S
Ni1107     O1112   1.922       .  S
C1108      O1118   1.289       .  A
O1109     Ni1125   1.957       .  S
O1109      C1115   1.286       .  A
O1110      C1115   1.274       .  A
C1111      C1189   1.482       .  S
O1112      C1114   1.279       .  A
O1113     Ni1124   1.959       .  S
C1114      O1120   1.276       .  A
H1116      O1117   0.966       .  S
O1117     Ni1125   1.926       .  S
O1117     Ni1119   1.911       .  S
O1117     Ni1124   1.896       .  S
O1118     Ni1119   2.007       .  S
Ni1119     O1123   1.909       .  S
Ni1119     O1121   1.922       .  S
O1120     Ni1125   1.965       .  S
C1122      C1166   1.500       .  S
C1122      O1123   1.270       .  A
O1127     Ni1133   1.958       .  S
O1127      C1148   1.277       .  A
O1128     Ni1151   1.899       .  S
O1128      C1137   1.270       .  A
O1129     Ni1133   1.897       .  S
O1129     Ni1151   1.911       .  S
O1129     Ni1145   1.900       .  S
O1129      H1152   0.965       .  S
C1130      O1147   1.266       .  A
C1130      O1139   1.283       .  A
O1131     Ni1150   1.944       .  S
O1131      C1137   1.277       .  A
O1132     Ni1150   1.905       .  S
O1132      C1134   1.267       .  A
Ni1133     O1136   1.951       .  S
Ni1133     O1138   1.895       .  S
C1134      O1144   1.273       .  A
O1135     Ni1151   1.913       .  S
O1135      C1141   1.274       .  A
O1136      C1141   1.280       .  A
C1137      C1198   1.478       .  S
O1138      C1140   1.275       .  A
O1139     Ni1150   1.967       .  S
C1140      O1146   1.277       .  A
H1142      O1143   0.968       .  S
O1143     Ni1151   1.911       .  S
O1143     Ni1145   1.911       .  S
O1143     Ni1150   1.899       .  S
O1144     Ni1145   1.982       .  S
Ni1145     O1149   1.896       .  S
Ni1145     O1147   1.879       .  S
O1146     Ni1151   1.958       .  S
C1148      C1157   1.483       .  S
C1148      O1149   1.262       .  A
C1153      C1154   1.401       .  A
C1153      C1158   1.403       .  A
C1153      H1163   1.082       .  S
C1154      C1155   1.416       .  A
C1154      C1159   1.495       .  S
C1155      C1156   1.412       .  A
C1155      C1160   1.505       .  S
C1156      C1157   1.404       .  A
C1156      H1161   1.084       .  S
C1157      C1158   1.417       .  A
C1158      C1162   1.508       .  S
C1159      C1164   1.414       .  A
C1159      C1168   1.404       .  A
C1160      H1176   1.104       .  S
C1160      H1177   1.108       .  S
C1160      H1178   1.111       .  S
C1162      H1173   1.110       .  S
C1162      H1174   1.110       .  S
C1162      H1175   1.107       .  S
C1164      C1165   1.407       .  A
C1164      C1169   1.508       .  S
C1165      C1166   1.411       .  A
C1165      H1170   1.084       .  S
C1166      C1167   1.421       .  A
C1167      C1168   1.407       .  A
C1167      C1171   1.508       .  S
C1168      H1172   1.083       .  S
C1169      H1179   1.111       .  S
C1169      H1180   1.109       .  S
C1169      H1181   1.107       .  S
C1171      H1182   1.111       .  S
C1171      H1183   1.109       .  S
C1171      H1184   1.110       .  S
C1185      C1186   1.401       .  A
C1185      C1190   1.412       .  A
C1185      H1195   1.083       .  S
C1186      C1187   1.410       .  A
C1186      C1191   1.486       .  S
C1187      C1188   1.396       .  A
C1187      C1192   1.494       .  S
C1188      C1189   1.396       .  A
C1188      H1193   1.085       .  S
C1189      C1190   1.418       .  A
C1190      C1194   1.503       .  S
C1191      C1196   1.410       .  A
C1191      C1200   1.400       .  A
C1192      H1208   1.108       .  S
C1192      H1209   1.108       .  S
C1192      H1210   1.110       .  S
C1194      H1205   1.107       .  S
C1194      H1206   1.107       .  S
C1194      H1207   1.110       .  S
C1196      C1197   1.411   1_556  A
C1196      C1201   1.500       .  S
C1197      C1198   1.405       .  A
C1197      H1202   1.084       .  S
C1198      C1199   1.417       .  A
C1199      C1200   1.398   1_554  A
C1199      C1203   1.507       .  S
C1200      H1204   1.085       .  S
C1201      H1211   1.104       .  S
C1201      H1212   1.109       .  S
C1201      H1213   1.105       .  S
C1203      H1214   1.108       .  S
C1203      H1215   1.104       .  S
C1203      H1216   1.111       .  S
C1217      C1218   1.400       .  A
C1217      C1222   1.403       .  A
C1217      H1227   1.085       .  S
C1218      C1219   1.419       .  A
C1218      C1223   1.500       .  S
C1219      C1220   1.416       .  A
C1219      C1224   1.506   1_455  S
C1220      C1221   1.408       .  A
C1220      H1225   1.084   1_455  S
C1221      C1222   1.419       .  A
C1222      C1226   1.505       .  S
C1223      C1228   1.415       .  A
C1223      C1232   1.406   1_455  A
C1224      H1240   1.111       .  S
C1224      H1241   1.106       .  S
C1224      H1242   1.110       .  S
C1226      H1237   1.111       .  S
C1226      H1238   1.109       .  S
C1226      H1239   1.106       .  S
C1228      C1229   1.412   1_556  A
C1228      C1233   1.505       .  S
C1229      C1230   1.409   1_455  A
C1229      H1234   1.084       .  S
C1230      C2895   1.415   1_554  A
C1231      C2894   1.412   1_556  A
C1231      C2896   1.407       .  A
C1231      C1235   1.507   1_556  S
C1232      C2895   1.406       .  A
C1232      H2900   1.083       .  S
C1233      H1243   1.110       .  S
C1233      H1244   1.110       .  S
C1233      H1245   1.108       .  S
C1235      H1246   1.111   1_554  S
C1235      H1247   1.110       .  S
C1235      H1248   1.110       .  S
H1236      C2896   1.081       .  S
C1249      C1254   1.408   1_565  A
C1249      H1259   1.084       .  S
C1250      C1251   1.413       .  A
C1251      C1252   1.399       .  A
C1251      C1256   1.514       .  S
C1252      C1253   1.402       .  A
C1252      H1257   1.083       .  S
C1254      C1258   1.507   1_545  S
C1255      C1264   1.402   1_556  A
C1256      H1272   1.104       .  S
C1256      H1273   1.110       .  S
C1256      H1274   1.101       .  S
C1258      H1269   1.111       .  S
C1258      H1270   1.109       .  S
C1258      H1271   1.110   1_565  S
C1260      C1261   1.406       .  A
C1260      C1265   1.503       .  S
C1261      H1266   1.084       .  S
C1262      C1263   1.416       .  A
C1263      C1264   1.396       .  A
C1263      C1267   1.509       .  S
C1264      H1268   1.085   1_554  S
C1265      H1275   1.111       .  S
C1265      H1277   1.109   1_554  S
C1267      H1278   1.108       .  S
C1267      H1279   1.106       .  S
C1267      H1280   1.111       .  S
C1281      C1282   1.412       .  A
C1281      C1286   1.422       .  A
C1281      H1291   1.084       .  S
C1282      C1283   1.415       .  A
C1282      C1287   1.511       .  S
C1283      C1284   1.403       .  A
C1283      C1288   1.512       .  S
C1284      C1285   1.415       .  A
C1284      H1289   1.084       .  S
C1285      C1286   1.421       .  A
C1286      C1290   1.502       .  S
C1287      C1292   1.423       .  A
C1287      C1296   1.410       .  A
C1288      H1304   1.107       .  S
C1288      H1305   1.108       .  S
C1288      H1306   1.111       .  S
C1290      H1301   1.111       .  S
C1290      H1302   1.110       .  S
C1290      H1303   1.105       .  S
C1292      C1293   1.404       .  A
C1292      C1297   1.505       .  S
C1293      C1294   1.402       .  A
C1293      H1298   1.085       .  S
C1294      C1295   1.415       .  A
C1295      C1296   1.415       .  A
C1295      C1299   1.506       .  S
C1296      H1300   1.084       .  S
C1297      H1307   1.108       .  S
C1297      H1308   1.101       .  S
C1297      H1309   1.111       .  S
C1299      H1310   1.111       .  S
C1299      H1311   1.110       .  S
C1299      H1312   1.110       .  S
C1313      C1314   1.401       .  A
C1313      C1318   1.404       .  A
C1313      H1323   1.074       .  S
C1314      C1315   1.411       .  A
C1314      C1319   1.486       .  S
C1315      C1316   1.400       .  A
C1315      C1320   1.505       .  S
C1316      C1317   1.403       .  A
C1316      H1321   1.085       .  S
C1317      C1318   1.411       .  A
C1318      C1322   1.505       .  S
C1319      C1324   1.405       .  A
C1319      C1328   1.403       .  A
C1320      H1336   1.108       .  S
C1320      H1337   1.108       .  S
C1320      H1338   1.111       .  S
C1322      H1333   1.109       .  S
C1322      H1334   1.109       .  S
C1322      H1335   1.109       .  S
C1324      C1325   1.399       .  A
C1324      C1329   1.500       .  S
C1325      C1326   1.408       .  A
C1325      H1330   1.084       .  S
C1326      C1327   1.411       .  A
C1327      C1328   1.405       .  A
C1327      C1331   1.498       .  S
C1328      H1332   1.077       .  S
C1329      H1339   1.109       .  S
C1329      H1340   1.106       .  S
C1329      H1341   1.108       .  S
C1331      H1342   1.106       .  S
C1331      H1343   1.108       .  S
C1331      H1344   1.108       .  S
C1345      C1346   1.393       .  A
C1345      C1350   1.401       .  A
C1345      H1355   1.080       .  S
C1346      C1347   1.415       .  A
C1346      C1351   1.488       .  S
C1347      C1348   1.409       .  A
C1347      C1352   1.503       .  S
C1348      C1349   1.406       .  A
C1348      H1353   1.084       .  S
C1349      C1350   1.429       .  A
C1350      C1354   1.512       .  S
C1351      C1356   1.408       .  A
C1351      C1360   1.403       .  A
C1352      H1368   1.109       .  S
C1352      H1369   1.107       .  S
C1352      H1370   1.107       .  S
C1354      H1365   1.108       .  S
C1354      H1366   1.111       .  S
C1354      H1367   1.109       .  S
C1356      C1357   1.399   1_556  A
C1356      C1361   1.499       .  S
C1357      C1358   1.401       .  A
C1357      H1362   1.085       .  S
C1358      C1359   1.414       .  A
C1359      C1360   1.410   1_554  A
C1359      C1363   1.505       .  S
C1360      H1364   1.081       .  S
C1361      H1371   1.111       .  S
C1361      H1372   1.104       .  S
C1361      H1373   1.104       .  S
C1363      H1374   1.109       .  S
C1363      H1375   1.108       .  S
C1363      H1376   1.108       .  S
C1377      C1378   1.404   1_554  A
C1377      C1382   1.404       .  A
C1377      H1387   1.081   1_554  S
C1378      C1383   1.526       .  S
C1379      C1380   1.422       .  A
C1379      C1384   1.506   1_544  S
C1380      H1385   1.084   1_545  S
C1381      C1382   1.420       .  A
C1382      C1386   1.505       .  S
C1383      C1388   1.422       .  A
C1383      C1392   1.415       .  A
C1384      H1400   1.107   1_565  S
C1384      H1401   1.111       .  S
C1384      H1402   1.108   1_556  S
C1386      H1397   1.110       .  S
C1386      H1398   1.109       .  S
C1386      H1399   1.102       .  S
C1388      C1389   1.406       .  A
C1388      C1393   1.512       .  S
C1389      C1390   1.408       .  A
C1389      H1394   1.085       .  S
C1390      C1391   1.420       .  A
C1391      C1392   1.421       .  A
C1391      C1395   1.505       .  S
C1392      H1396   1.078       .  S
C1393      H1403   1.111       .  S
C1393      H1404   1.105       .  S
C1395      H1406   1.106       .  S
C1395      H1407   1.109       .  S
C1409      C1410   1.402       .  A
C1409      C1414   1.404       .  A
C1409      H1419   1.083       .  S
C1410      C1411   1.412       .  A
C1410      C1415   1.492       .  S
C1411      C1412   1.412       .  A
C1411      C1416   1.505       .  S
C1412      C1413   1.407       .  A
C1412      H1417   1.084       .  S
C1413      C1414   1.416       .  A
C1414      C1418   1.505       .  S
C1415      C1420   1.409       .  A
C1415      C1424   1.407       .  A
C1416      H1432   1.110       .  S
C1416      H1433   1.108       .  S
C1416      H1434   1.110       .  S
C1418      H3093   1.109       .  S
C1418      H1430   1.109       .  S
C1418      H1431   1.110       .  S
C1420      C1421   1.400       .  A
C1420      C1425   1.509       .  S
C1421      C1422   1.410       .  A
C1421      H1426   1.085       .  S
C1422      C1423   1.416       .  A
C1423      C1424   1.417       .  A
C1423      C1427   1.500       .  S
C1424      H1428   1.082       .  S
C1425      H1435   1.107       .  S
C1425      H1436   1.110       .  S
C1425      H1437   1.107       .  S
C1427      H1438   1.100       .  S
C1427      H1439   1.110       .  S
C1427      H1440   1.108       .  S
H1429      C3082   1.110       .  S
C1441      C1442   1.401       .  A
C1441      C1446   1.394       .  A
C1441      H1451   1.083       .  S
C1442      C1443   1.415       .  A
C1442      C1447   1.486       .  S
C1443      C1444   1.407       .  A
C1443      C1448   1.503       .  S
C1444      C1445   1.402       .  A
C1444      H1449   1.084       .  S
C1445      C1446   1.413       .  A
C1446      C1450   1.506       .  S
C1447      C1452   1.412       .  A
C1447      C1456   1.400       .  A
C1448      H1464   1.108       .  S
C1448      H1465   1.108       .  S
C1448      H1466   1.108       .  S
C1450      H1461   1.103       .  S
C1450      H1462   1.108       .  S
C1450      H1463   1.106       .  S
C1452      C1453   1.405       .  A
C1452      C1457   1.506       .  S
C1453      C1454   1.408       .  A
C1453      H1458   1.083       .  S
C1454      C1455   1.420       .  A
C1455      C1456   1.402       .  A
C1455      C1459   1.504       .  S
C1456      H1460   1.084       .  S
C1457      H1467   1.105       .  S
C1457      H1468   1.105       .  S
C1457      H1469   1.105       .  S
C1459      H1470   1.107       .  S
C1459      H1471   1.110       .  S
C1459      H1472   1.105       .  S
C1473      C1474   1.400       .  A
C1473      C1478   1.402       .  A
C1473      H1483   1.085       .  S
C1474      C1475   1.414       .  A
C1474      C1479   1.489       .  S
C1475      C1476   1.410       .  A
C1475      C1480   1.507       .  S
C1476      C1477   1.407       .  A
C1476      H1481   1.082       .  S
C1477      C1478   1.416       .  A
C1478      C1482   1.502       .  S
C1479      C1484   1.412       .  A
C1479      C1488   1.399       .  A
C1480      H1496   1.109       .  S
C1480      H1497   1.108       .  S
C1480      H1498   1.107       .  S
C1482      H1493   1.110       .  S
C1482      H1494   1.109       .  S
C1482      H1495   1.108       .  S
C1484      C1485   1.408   1_556  A
C1484      C1489   1.499       .  S
C1485      C1486   1.401       .  A
C1485      H1490   1.084       .  S
C1486      C1487   1.409       .  A
C1487      C1488   1.398   1_554  A
C1487      C1491   1.505       .  S
C1488      H1492   1.075       .  S
C1489      H1499   1.104   1_556  S
C1489      H1500   1.106       .  S
C1489      H1501   1.107       .  S
C1491      H1502   1.110       .  S
C1491      H1503   1.105       .  S
C1491      H1504   1.110       .  S
C1505      C1506   1.398       .  A
C1505      C1510   1.400       .  A
C1505      H1515   1.085       .  S
C1506      C1507   1.415       .  A
C1506      C1511   1.499       .  S
C1507      C1508   1.413       .  A
C1507      C1512   1.496       .  S
C1508      C1509   1.405       .  A
C1508      H1513   1.080       .  S
C1509      C1510   1.426       .  A
C1510      C1514   1.509       .  S
C1511      C1516   1.415       .  A
C1511      C1520   1.407       .  A
C1512      H1528   1.109       .  S
C1512      H1529   1.109       .  S
C1512      H1530   1.100       .  S
C1514      H1525   1.111       .  S
C1514      H1526   1.111       .  S
C1514      H1527   1.106       .  S
C1516      C1517   1.407       .  A
C1516      C1521   1.504       .  S
C1517      C1518   1.409       .  A
C1517      H1522   1.084       .  S
C1518      C1519   1.414       .  A
C1519      C1520   1.411       .  A
C1519      C1523   1.503       .  S
C1520      H1524   1.084       .  S
C1521      H1531   1.111       .  S
C1521      H1532   1.108       .  S
C1521      H1533   1.099       .  S
C1523      H1534   1.111       .  S
C1523      H1535   1.110       .  S
C1523      H1536   1.111       .  S
C1537      C1538   1.401       .  A
C1537      C1542   1.404       .  A
C1537      H1547   1.084       .  S
C1538      C1539   1.415       .  A
C1538      C1543   1.489       .  S
C1539      C1540   1.404       .  A
C1539      C1544   1.500       .  S
C1540      C1541   1.400       .  A
C1540      H1545   1.085       .  S
C1541      C1542   1.420       .  A
C1542      C1546   1.504       .  S
C1543      C1548   1.414       .  A
C1543      C1552   1.402       .  A
C1544      H1560   1.110       .  S
C1544      H1561   1.109       .  S
C1544      H1562   1.107       .  S
C1546      H1557   1.106       .  S
C1546      H1558   1.111       .  S
C1546      H1559   1.111       .  S
C1548      C1549   1.402       .  A
C1548      C1553   1.506       .  S
C1549      C1550   1.408       .  A
C1549      H1554   1.084       .  S
C1550      C1551   1.423       .  A
C1551      C1552   1.406       .  A
C1551      C1555   1.508       .  S
C1552      H1556   1.084       .  S
C1553      H1563   1.109       .  S
C1553      H1564   1.111       .  S
C1553      H1565   1.105       .  S
C1555      H1566   1.111       .  S
C1555      H1567   1.109       .  S
C1555      H1568   1.106       .  S
C1569      C1570   1.394       .  A
C1569      C1574   1.401       .  A
C1569      H1579   1.085       .  S
C1570      C1571   1.409       .  A
C1570      C1575   1.475       .  S
C1571      C1572   1.403       .  A
C1571      C1576   1.505       .  S
C1572      C1573   1.408       .  A
C1572      H1577   1.084       .  S
C1573      C1574   1.430       .  A
C1574      C1578   1.511       .  S
C1575      C1580   1.410       .  A
C1575      C1584   1.404       .  A
C1576      H1592   1.106       .  S
C1576      H1593   1.110       .  S
C1576      H1594   1.111       .  S
C1578      H1589   1.111       .  S
C1578      H1590   1.106       .  S
C1578      H1591   1.110       .  S
C1580      C1581   1.399   1_556  A
C1580      C1585   1.509       .  S
C1581      C1582   1.401       .  A
C1581      H1586   1.084       .  S
C1582      C1583   1.409       .  A
C1583      C1584   1.406   1_554  A
C1583      C1587   1.505       .  S
C1584      H1588   1.083       .  S
C1585      H1595   1.110       .  S
C1585      H1596   1.110       .  S
C1585      H1597   1.110       .  S
C1587      H1598   1.107       .  S
C1587      H1599   1.110       .  S
C1587      H1600   1.110       .  S
C1601      C3266   1.407       .  A
C1601      C1606   1.416   1_556  A
C1601      H1611   1.084       .  S
C1602      C3265   1.407       .  A
C1602      C1603   1.421       .  A
C1602      C1607   1.502       .  S
C1603      C1604   1.406   1_556  A
C1603      C1608   1.509       .  S
C1604      C1605   1.404       .  A
C1604      H1609   1.085       .  S
C1605      C3270   1.415       .  A
C1606      C3269   1.419       .  A
C1606      C1610   1.506       .  S
C1607      C3276   1.413       .  A
C1607      C1616   1.403   1_655  A
C1608      H1624   1.111       .  S
C1608      H1625   1.105       .  S
C1608      H1626   1.107       .  S
C1610      H1621   1.110       .  S
C1610      H1622   1.111       .  S
C1610      H1623   1.110       .  S
C1612      C3271   1.416       .  A
C1612      C1613   1.411       .  A
C1612      C1617   1.498       .  S
C1613      C3278   1.403       .  A
C1613      H1618   1.084       .  S
C1614      C3277   1.405       .  A
C1614      C1615   1.419   1_655  A
C1615      C1616   1.409       .  A
C1615      C1619   1.508       .  S
C1616      H1620   1.084       .  S
C1617      H1627   1.105       .  S
C1617      H1628   1.110       .  S
C1617      H1629   1.109       .  S
C1619      H1630   1.111       .  S
C1619      H1631   1.110       .  S
C1619      H1632   1.108       .  S
C1633      C1634   1.406       .  A
C1633      C1638   1.401       .  A
C1633      H1643   1.084       .  S
C1634      C1635   1.413       .  A
C1634      C1639   1.490       .  S
C1635      C1636   1.407       .  A
C1635      C1640   1.507       .  S
C1636      C1637   1.406       .  A
C1636      H1641   1.084       .  S
C1637      C1638   1.411       .  A
C1638      C1642   1.509       .  S
C1639      C1644   1.408       .  A
C1639      C1648   1.411       .  A
C1640      H1656   1.108       .  S
C1640      H1657   1.107       .  S
C1640      H1658   1.111       .  S
C1642      H1653   1.108       .  S
C1642      H1654   1.110       .  S
C1642      H1655   1.109       .  S
C1644      C1645   1.393       .  A
C1644      C1649   1.501       .  S
C1645      C1646   1.408       .  A
C1645      H1650   1.084       .  S
C1646      C1647   1.412       .  A
C1647      C1648   1.413       .  A
C1647      C1651   1.505       .  S
C1648      H1652   1.083       .  S
C1649      H1659   1.105       .  S
C1649      H1660   1.109       .  S
C1649      H1661   1.104       .  S
C1651      H1662   1.108       .  S
C1651      H1663   1.110       .  S
C1651      H1664   1.111       .  S
N1665      C1669   1.374       .  A
N1665      C1666   1.368       .  A
N1665      C1726   1.480       .  S
C1666      C1667   1.381       .  A
C1666      C2478   1.497       .  S
C1667      C1668   1.362       .  A
C1667      H1670   1.081       .  S
C1668      C1669   1.388       .  A
C1668      H1671   1.084       .  S
C1669      C1972   1.520       .  S
N1672      C1676   1.363       .  A
N1672      C1673   1.363       .  A
N1672      C1936   1.452       .  S
C1673      C1674   1.382       .  A
C1673      C2469   1.468       .  S
C1674      C1675   1.357       .  A
C1674      H1677   1.083       .  S
C1675      C1676   1.380       .  A
C1675      H1678   1.083       .  S
C1676      C1707   1.459       .  S
N1679      C1683   1.382       .  A
N1679      C1680   1.373       .  A
C1680      C1681   1.377       .  A
C1680      C2446   1.488       .  S
C1681      C1682   1.352       .  A
C1681      H1684   1.083       .  S
C1682      C1683   1.387       .  A
C1682      H1685   1.076       .  S
C1683      C1706   1.522       .  S
N1686      C1690   1.380       .  A
N1686      C1687   1.375       .  A
C1687      C1688   1.380       .  A
C1687      C2437   1.494       .  S
C1688      C1689   1.359       .  A
C1688      H1691   1.083       .  S
C1689      C1690   1.384       .  A
C1689      H1692   1.083       .  S
C1690      C1722   1.506       .  S
O1693     Ni1699   1.930       .  S
O1693      C1714   1.277       .  A
O1694     Ni1717   1.903       .  S
O1694      C1703   1.272       .  A
O1695     Ni1699   1.866       .  S
O1695     Ni1717   1.881       .  S
O1695     Ni1711   1.885       .  S
O1695      H1718   0.967       .  S
C1696      C1909   1.483       .  S
C1696      O1713   1.276       .  A
C1696      O1705   1.280       .  A
O1697     Ni1716   1.957       .  S
O1697      C1703   1.281       .  A
O1698     Ni1716   1.910       .  S
O1698      C1700   1.274       .  A
Ni1699     O1702   1.913       .  S
Ni1699     O1704   1.918       .  S
C1700      C1756   1.513       .  S
C1700      O1710   1.282       .  A
O1701     Ni1717   1.907       .  S
O1701      C1707   1.281       .  A
O1702      C1707   1.276       .  A
C1703      C2373   1.491       .  S
O1704      C1706   1.277       .  A
O1705     Ni1716   1.929       .  S
C1706      O1712   1.278       .  A
H1708      O1709   0.966       .  S
O1709     Ni1717   1.900       .  S
O1709     Ni1711   1.896       .  S
O1709     Ni1716   1.871       .  S
O1710     Ni1711   1.980       .  S
Ni1711     O1715   1.899       .  S
Ni1711     O1713   1.915       .  S
O1712     Ni1717   1.975       .  S
C1714      C2405   1.492       .  S
C1714      O1715   1.277       .  A
O1719     Ni1725   1.936       .  S
O1719      C1740   1.275       .  A
O1720     Ni1743   1.890       .  S
O1720      C1729   1.269       .  A
O1721     Ni1725   1.885       .  S
O1721     Ni1743   1.897       .  S
O1721     Ni1737   1.898       .  S
O1721      H1744   0.967       .  S
C1722      O1739   1.278       .  A
C1722      O1731   1.283       .  A
O1723     Ni1742   1.960       .  S
O1723      C1729   1.283       .  A
O1724     Ni1742   1.928       .  S
O1724      C1726   1.282       .  A
Ni1725     O1728   1.922       .  S
Ni1725     O1730   1.911       .  S
C1726      O1736   1.278       .  A
O1727     Ni1743   1.923       .  S
O1727      C1733   1.279       .  A
O1728      C1733   1.276       .  A
C1729      C2382   1.502       .  S
O1730      C1732   1.276       .  A
O1731     Ni1742   1.961       .  S
C1732      N1912   1.467       .  S
C1732      O1738   1.277       .  A
C1733      C1749   1.483       .  S
H1734      O1735   0.967       .  S
O1735     Ni1743   1.902       .  S
O1735     Ni1737   1.892       .  S
O1735     Ni1742   1.884       .  S
O1736     Ni1737   1.969       .  S
Ni1737     O1741   1.894       .  S
Ni1737     O1739   1.912       .  S
O1738     Ni1743   1.968       .  S
C1740      C2414   1.466       .  S
C1740      O1741   1.266       .  A
N1745      C1749   1.366       .  A
N1745      C1746   1.366       .  A
N1745      C1788   1.455       .  S
C1746      C1747   1.390       .  A
C1746      C2341   1.503       .  S
C1747      C1748   1.369       .  A
C1747      H1750   1.083       .  S
C1748      C1749   1.375       .  A
C1748      H1751   1.082       .  S
N1752      C1756   1.383       .  A
N1752      C1753   1.375       .  A
N1752      C1772   1.465       .  S
C1753      C1754   1.372       .  A
C1753      C2350   1.485       .  S
C1754      C1755   1.342       .  A
C1754      H1757   1.083       .  S
C1755      C1756   1.391       .  A
C1755      H1758   1.083       .  S
O1759     Ni1765   1.934       .  S
O1759      C1780   1.277       .  A
O1760     Ni1783   1.902       .  S
O1760      C1769   1.273       .  A
O1761     Ni1765   1.895       .  S
O1761     Ni1783   1.887       .  S
O1761     Ni1777   1.918       .  S
O1761      H1784   0.967       .  S
C1762      C1822   1.499       .  S
C1762      O1779   1.282       .  A
C1762      O1771   1.277       .  A
O1763     Ni1782   1.934       .  S
O1763      C1769   1.279       .  A
O1764     Ni1782   1.927       .  S
O1764      C1766   1.280       .  A
Ni1765     O1768   1.940       .  S
Ni1765     O1770   1.926       .  S
C1766      O1776   1.283       .  A
O1767     Ni1783   1.929       .  S
O1767      C1773   1.284       .  A
O1768      C1773   1.277       .  A
C1769      C2309   1.478       .  S
O1770      C1772   1.277       .  A
O1771     Ni1782   1.938       .  S
C1772      O1778   1.283       .  A
C1773      C1829   1.500       .  S
H1774      O1775   0.966       .  S
O1775     Ni1783   1.915       .  S
O1775     Ni1777   1.887       .  S
O1775     Ni1782   1.888       .  S
O1776     Ni1777   1.979       .  S
Ni1777     O1781   1.895       .  S
Ni1777     O1779   1.936       .  S
O1778     Ni1783   1.978       .  S
C1780      C2277   1.465       .  S
C1780      O1781   1.272       .  A
O1785     Ni1791   1.913       .  S
O1785      C1806   1.267       .  A
O1786     Ni1809   1.886       .  S
O1786      C1795   1.262       .  A
O1787     Ni1791   1.912       .  S
O1787     Ni1809   1.923       .  S
O1787     Ni1803   1.921       .  S
O1787      H1810   0.967       .  S
C1788      O1805   1.268       .  A
C1788      O1797   1.272       .  A
O1789     Ni1808   1.914       .  S
O1789      C1795   1.266       .  A
O1790     Ni1808   1.917       .  S
O1790      C1792   1.270       .  A
Ni1791     O1794   1.932       .  S
Ni1791     O1796   1.919       .  S
C1792      C1836   1.516       .  S
C1792      O1802   1.279       .  A
O1793     Ni1809   1.942       .  S
O1793      C1799   1.275       .  A
O1794      C1799   1.271       .  A
C1795      C2318   1.453       .  S
O1796      C1798   1.269       .  A
O1797     Ni1808   1.932       .  S
C1798      C1815   1.509       .  S
C1798      O1804   1.273       .  A
H1800      O1801   0.966       .  S
O1801     Ni1809   1.928       .  S
O1801     Ni1803   1.925       .  S
O1801     Ni1808   1.909       .  S
O1802     Ni1803   1.989       .  S
Ni1803     O1807   1.884       .  S
Ni1803     O1805   1.929       .  S
O1804     Ni1809   1.973       .  S
C1806      C2286   1.483       .  S
C1806      O1807   1.260       .  A
N1811      C1815   1.376       .  A
N1811      C1812   1.370       .  A
N1811      C1872   1.474       .  S
C1812      C1813   1.379       .  A
C1812      C2254   1.517       .  S
C1813      C1814   1.366       .  A
C1813      H1816   1.072   1_655  S
C1814      C1815   1.386       .  A
C1814      H1817   1.083   1_655  S
N1818      C1822   1.374       .  A
N1818      C1819   1.365       .  A
N1818      C1853   1.447       .  S
C1819      C1820   1.382       .  A
C1819      C2245   1.492       .  S
C1820      C1821   1.368       .  A
C1820      H1823   1.083       .  S
C1821      C1822   1.383       .  A
C1821      H1824   1.083       .  S
N1825      C2661   1.380   1_545  A
N1825      C1826   1.379       .  A
N1825      C1842   1.461       .  S
C1826      C2659   1.385   1_545  A
C1826      C2222   1.505       .  S
C1827      C2658   1.387       .  A
C1827      C1828   1.355       .  A
C1827      H1830   1.083       .  S
C1828      C1829   1.377       .  A
C1828      H1831   1.082       .  S
C1829      N2657   1.382       .  A
N1832      C2668   1.379   1_545  A
N1832      C1833   1.376       .  A
N1832      C1878   1.478       .  S
C1833      C2666   1.373       .  A
C1833      C2213   1.504       .  S
C1834      C2665   1.370       .  A
C1834      C1835   1.365       .  A
C1834      H1837   1.080       .  S
C1835      C1836   1.393       .  A
C1835      H1838   1.083       .  S
C1836      N2664   1.381       .  A
O1839     Ni1845   1.923       .  S
O1839      C1860   1.272       .  A
O1840     Ni1863   1.912       .  S
O1840      C1849   1.272       .  A
O1841     Ni1845   1.875       .  S
O1841     Ni1863   1.905       .  S
O1841     Ni1857   1.919       .  S
O1841      H1864   0.966       .  S
C1842      O1859   1.278       .  A
C1842      O1851   1.276       .  A
O1843     Ni1862   1.926       .  S
O1843      C1849   1.271       .  A
O1844     Ni1862   1.909       .  S
O1844      C1846   1.271       .  A
Ni1845     O1848   1.925       .  S
Ni1845     O1850   1.913       .  S
C1846      N1898   1.479       .  S
C1846      O1856   1.288       .  A
O1847     Ni1863   1.945       .  S
O1847      C1853   1.282       .  A
O1848      C1853   1.274       .  A
C1849      C2149   1.473       .  S
O1850      C1852   1.279       .  A
O1851     Ni1862   1.941       .  S
C1852      O1858   1.283       .  A
H1854      O1855   0.967       .  S
O1855     Ni1863   1.931       .  S
O1855     Ni1857   1.928       .  S
O1855     Ni1862   1.891       .  S
O1856     Ni1857   2.003       .  S
Ni1857     O1861   1.927       .  S
Ni1857     O1859   1.943       .  S
O1858     Ni1863   1.983       .  S
C1860      C2181   1.502       .  S
C1860      O1861   1.277       .  A
O1865     Ni1871   1.939       .  S
O1865      C1886   1.274       .  A
O1866     Ni1889   1.927       .  S
O1866      C1875   1.282       .  A
O1867     Ni1871   1.866       .  S
O1867     Ni1889   1.911       .  S
O1867     Ni1883   1.916       .  S
O1867      H1890   0.966       .  S
C1868      O1885   1.281       .  A
C1868      O1877   1.273       .  A
O1869     Ni1888   1.909       .  S
O1869      C1875   1.272       .  A
O1870     Ni1888   1.917       .  S
O1870      C1872   1.275       .  A
Ni1871     O1874   1.930       .  S
Ni1871     O1876   1.923       .  S
C1872      O1882   1.280       .  A
O1873     Ni1889   1.979       .  S
O1873      C1879   1.286       .  A
O1874      C1879   1.273       .  A
C1875      C2158   1.493       .  S
O1876      C1878   1.278       .  A
O1877     Ni1888   1.914       .  S
C1878      O1884   1.289       .  A
C1879      N1891   1.467       .  S
H1880      O1881   0.966       .  S
O1881     Ni1889   1.920       .  S
O1881     Ni1883   1.899       .  S
O1881     Ni1888   1.878       .  S
O1882     Ni1883   1.976       .  S
Ni1883     O1887   1.905       .  S
Ni1883     O1885   1.945       .  S
O1884     Ni1889   1.993       .  S
C1886      C2190   1.478       .  S
C1886      O1887   1.266       .  A
N1891      C1895   1.377       .  A
N1891      C1892   1.385       .  A
C1892      C1893   1.388       .  A
C1892      C2117   1.508       .  S
C1893      C1894   1.347       .  A
C1893      H1896   1.083       .  S
C1894      C1895   1.376       .  A
C1894      H1897   1.083       .  S
C1895      C1962   1.490       .  S
N1898      C1902   1.379       .  A
N1898      C1899   1.365       .  A
C1899      C1900   1.374       .  A
C1899      C2126   1.499       .  S
C1900      C1901   1.374       .  A
C1900      H1903   1.073       .  S
C1901      C1902   1.395       .  A
C1901      H1904   1.084       .  S
C1902      C1946   1.519       .  S
N1905      C2741   1.364   1_545  A
N1905      C1906   1.367       .  A
N1905      C1947   1.456       .  S
C1906      C2739   1.389   1_545  A
C1906      C2085   1.497       .  S
C1907      C2738   1.387       .  A
C1907      C1908   1.368       .  A
C1907      H1910   1.083       .  S
C1908      C1909   1.380       .  A
C1908      H1911   1.083       .  S
C1909      N2737   1.360       .  A
N1912      C2748   1.377       .  A
N1912      C1913   1.366       .  A
C1913      C2746   1.375       .  A
C1913      C2094   1.486       .  S
C1914      C2745   1.378       .  A
C1914      C1915   1.351   1_565  A
C1914      H1917   1.076       .  S
C1915      C1916   1.386       .  A
C1915      H1918   1.077       .  S
C1916      N2744   1.377   1_545  A
C1916      C1966   1.515       .  S
N1919      C1923   1.382       .  A
N1919      C1920   1.366       .  A
N1919      C1940   1.487       .  S
C1920      C1921   1.373       .  A
C1920      C2053   1.492       .  S
C1922      H1925   1.084       .  S
N1926      C1930   1.371       .  A
N1926      C1927   1.372       .  A
C1927      C1928   1.386       .  A
C1927      C2062   1.499       .  S
C1928      C1929   1.362       .  A
C1928      H1931   1.083       .  S
C1929      C1930   1.379       .  A
C1929      H1932   1.083       .  S
C1930      C1973   1.498       .  S
O1933     Ni1939   1.948       .  S
O1933      C1954   1.275       .  A
O1934     Ni1957   1.900       .  S
O1934      C1943   1.267       .  A
O1935     Ni1939   1.906       .  S
O1935     Ni1957   1.928       .  S
O1935     Ni1951   1.899       .  S
O1935      H1958   0.967       .  S
C1936      O1953   1.262       .  A
C1936      O1945   1.274       .  A
O1937     Ni1956   1.941       .  S
O1937      C1943   1.274       .  A
O1938     Ni1956   1.920       .  S
O1938      C1940   1.278       .  A
Ni1939     O1942   1.945       .  S
Ni1939     O1944   1.914       .  S
C1940      O1950   1.292       .  A
O1941     Ni1957   1.927       .  S
O1941      C1947   1.273       .  A
O1942      C1947   1.280       .  A
C1943      C2021   1.495       .  S
O1944      C1946   1.267       .  A
O1945     Ni1956   1.957       .  S
C1946      O1952   1.276       .  A
H1948      O1949   0.966       .  S
O1949     Ni1957   1.929       .  S
O1949     Ni1951   1.926       .  S
O1949     Ni1956   1.917       .  S
O1950     Ni1951   2.015       .  S
Ni1951     O1955   1.914       .  S
Ni1951     O1953   1.903       .  S
O1952     Ni1957   1.985       .  S
C1954      C1998   1.508       .  S
C1954      O1955   1.270       .  A
O1959     Ni1965   1.956       .  S
O1959      C1980   1.279       .  A
O1960     Ni1983   1.896       .  S
O1960      C1969   1.269       .  A
O1961     Ni1965   1.874       .  S
O1961     Ni1983   1.895       .  S
O1961     Ni1977   1.893       .  S
O1961      H1984   0.967       .  S
C1962      O1979   1.270       .  A
C1962      O1971   1.279       .  A
O1963     Ni1982   1.957       .  S
O1963      C1969   1.281       .  A
O1964     Ni1982   1.900       .  S
O1964      C1966   1.274       .  A
Ni1965     O1968   1.942       .  S
Ni1965     O1970   1.901       .  S
C1966      O1976   1.283       .  A
O1967     Ni1983   1.923       .  S
O1967      C1973   1.280       .  A
O1968      C1973   1.282       .  A
C1969      C2030   1.480       .  S
O1970      C1972   1.276       .  A
O1971     Ni1982   1.946       .  S
C1972      O1978   1.278       .  A
H1974      O1975   0.964       .  S
O1975     Ni1983   1.912       .  S
O1975     Ni1977   1.901       .  S
O1975     Ni1982   1.895       .  S
O1976     Ni1977   1.985       .  S
Ni1977     O1981   1.905       .  S
Ni1977     O1979   1.882       .  S
O1978     Ni1983   1.966       .  S
C1980      C1989   1.493       .  S
C1980      O1981   1.271       .  A
C1985      C1986   1.404       .  A
C1985      C1990   1.408       .  A
C1985      H1995   1.083       .  S
C1986      C1987   1.417       .  A
C1986      C1991   1.505       .  S
C1987      C1988   1.416       .  A
C1987      C1992   1.506       .  S
C1988      C1989   1.406       .  A
C1988      H1993   1.084       .  S
C1989      C1990   1.419       .  A
C1990      C1994   1.509       .  S
C1991      C1996   1.414       .  A
C1991      C2000   1.406       .  A
C1992      H2008   1.108       .  S
C1992      H2009   1.110       .  S
C1992      H2010   1.110       .  S
C1994      H2005   1.110       .  S
C1994      H2006   1.109       .  S
C1994      H2007   1.108       .  S
C1996      C1997   1.412       .  A
C1996      C2001   1.508       .  S
C1997      C1998   1.412       .  A
C1997      H2002   1.084       .  S
C1998      C1999   1.419       .  A
C1999      C2000   1.412       .  A
C1999      C2003   1.505       .  S
C2000      H2004   1.083       .  S
C2001      H2011   1.111       .  S
C2001      H2012   1.109       .  S
C2001      H2013   1.109       .  S
C2003      H2014   1.109       .  S
C2003      H2015   1.109       .  S
C2003      H2016   1.108       .  S
C2017      C2018   1.405       .  A
C2017      C2022   1.416       .  A
C2017      H2027   1.082       .  S
C2018      C2019   1.408       .  A
C2018      C2023   1.495       .  S
C2019      C2020   1.397       .  A
C2019      C2024   1.496       .  S
C2020      C2021   1.402       .  A
C2020      H2025   1.084       .  S
C2021      C2022   1.420       .  A
C2022      C2026   1.505       .  S
C2023      C2028   1.410       .  A
C2023      C2032   1.405       .  A
C2024      H2040   1.103       .  S
C2024      H2041   1.109       .  S
C2024      H2042   1.110       .  S
C2026      H2037   1.109       .  S
C2026      H2038   1.106       .  S
C2026      H2039   1.111       .  S
C2028      C2029   1.414   1_556  A
C2028      C2033   1.497       .  S
C2029      C2030   1.401       .  A
C2029      H2034   1.081       .  S
C2030      C2031   1.412       .  A
C2031      C2032   1.400   1_554  A
C2031      C2035   1.504       .  S
C2032      H2036   1.085       .  S
C2033      H2043   1.099       .  S
C2033      H2044   1.107       .  S
C2033      H2045   1.106       .  S
C2035      H2046   1.109       .  S
C2035      H2047   1.106       .  S
C2035      H2048   1.106       .  S
C2049      C2050   1.399       .  A
C2049      C2054   1.402       .  A
C2049      H2059   1.085       .  S
C2050      C2051   1.419       .  A
C2050      C2055   1.498       .  S
C2051      C2052   1.413       .  A
C2051      C2056   1.504       .  S
C2052      C2053   1.406       .  A
C2052      H2057   1.085       .  S
C2053      C2054   1.418       .  A
C2054      C2058   1.504       .  S
C2055      C2060   1.411       .  A
C2055      C2064   1.404       .  A
C2056      H2072   1.111       .  S
C2056      H2073   1.106       .  S
C2056      H2074   1.110       .  S
C2058      H2069   1.110       .  S
C2058      H2070   1.108       .  S
C2058      H2071   1.105       .  S
C2060      C2061   1.416   1_556  A
C2060      C2065   1.505       .  S
C2061      C2062   1.413       .  A
C2061      H2066   1.084       .  S
C2063      C2067   1.508   1_556  S
C2065      H2075   1.108       .  S
C2065      H2076   1.107       .  S
C2065      H2077   1.107       .  S
C2067      H2078   1.111   1_554  S
C2067      H2079   1.109       .  S
C2067      H2080   1.110       .  S
C2081      C2914   1.397       .  A
C2081      C2086   1.405       .  A
C2081      H2091   1.084       .  S
C2082      C2913   1.406       .  A
C2082      C2083   1.413       .  A
C2082      C2919   1.498       .  S
C2083      C2084   1.401       .  A
C2083      C2088   1.507       .  S
C2084      C2085   1.401       .  A
C2084      H2089   1.083       .  S
C2085      C2918   1.422       .  A
C2086      C2917   1.421       .  A
C2086      C2090   1.506       .  S
C2087      C2924   1.412   1_556  A
C2087      C2096   1.402   1_556  A
C2087      C2914   1.486       .  S
C2088      H2104   1.103       .  S
C2088      H2105   1.108       .  S
C2088      H2106   1.107       .  S
C2090      H2101   1.109       .  S
C2090      H2102   1.108       .  S
C2090      H2103   1.110       .  S
C2092      C2919   1.416   1_554  A
C2092      C2093   1.409       .  A
C2092      C2097   1.496       .  S
C2093      C2926   1.402   1_545  A
C2093      H2098   1.084       .  S
C2094      C2925   1.407       .  A
C2094      C2095   1.418       .  A
C2095      C2096   1.397       .  A
C2095      C2099   1.509       .  S
C2096      H2100   1.085   1_554  S
C2097      H2107   1.111       .  S
C2097      H2940   1.105       .  S
C2097      H2109   1.108   1_554  S
C2099      H2110   1.108       .  S
C2099      H2111   1.108       .  S
C2099      H2112   1.111       .  S
H2108      C2929   1.109       .  S
C2113      C2114   1.415       .  A
C2113      C2118   1.420       .  A
C2113      H2123   1.084       .  S
C2114      C2115   1.417       .  A
C2114      C2119   1.514       .  S
C2115      C2116   1.403       .  A
C2115      C2120   1.510       .  S
C2116      C2117   1.413       .  A
C2116      H2121   1.086       .  S
C2117      C2118   1.417       .  A
C2118      C2122   1.503       .  S
C2119      C2124   1.425       .  A
C2119      C2128   1.408       .  A
C2120      H2136   1.106       .  S
C2120      H2137   1.105   1_545  S
C2120      H2138   1.111   1_545  S
C2122      H2133   1.111       .  S
C2122      H2134   1.111       .  S
C2122      H2135   1.106       .  S
C2124      C2125   1.407       .  A
C2124      C2129   1.505       .  S
C2125      C2126   1.402       .  A
C2125      H2130   1.085       .  S
C2126      C2127   1.416       .  A
C2127      C2128   1.412       .  A
C2127      C2131   1.504       .  S
C2128      H2132   1.084       .  S
C2129      H2139   1.111       .  S
C2129      H2140   1.109       .  S
C2129      H2141   1.102       .  S
C2131      H2142   1.111       .  S
C2131      H2143   1.110       .  S
C2131      H2144   1.106       .  S
C2145      C2146   1.405       .  A
C2145      C2150   1.409       .  A
C2145      H2155   1.079   1_655  S
C2146      C2147   1.412       .  A
C2146      C2151   1.490       .  S
C2147      C2148   1.401       .  A
C2147      C2152   1.505       .  S
C2148      C2149   1.401       .  A
C2148      H2153   1.085       .  S
C2149      C2150   1.412       .  A
C2150      C2154   1.505       .  S
C2151      C2156   1.404       .  A
C2151      C2160   1.403       .  A
C2152      H2168   1.108       .  S
C2152      H2169   1.108       .  S
C2152      H2170   1.111       .  S
C2154      H2165   1.111   1_655  S
C2154      H2166   1.110       .  S
C2154      H2167   1.107   1_655  S
C2156      C2157   1.402       .  A
C2156      C2161   1.497   1_655  S
C2157      C2158   1.409       .  A
C2157      H2162   1.084   1_655  S
C2158      C2159   1.409       .  A
C2159      C2160   1.407       .  A
C2159      C2163   1.492       .  S
C2160      H2164   1.079       .  S
C2161      H2171   1.106       .  S
C2161      H2172   1.104       .  S
C2161      H2173   1.108       .  S
C2163      H2174   1.104       .  S
C2163      H2175   1.107       .  S
C2163      H2176   1.106       .  S
C2177      C2178   1.397       .  A
C2177      C2182   1.404       .  A
C2177      H2187   1.080       .  S
C2178      C2179   1.417       .  A
C2178      C2183   1.497       .  S
C2179      C2180   1.411       .  A
C2179      C2184   1.504       .  S
C2180      C2181   1.408       .  A
C2180      H2185   1.084       .  S
C2181      C2182   1.426       .  A
C2182      C2186   1.511       .  S
C2183      C2188   1.413       .  A
C2183      C2192   1.404       .  A
C2184      H2200   1.108       .  S
C2184      H2201   1.107       .  S
C2184      H2202   1.109       .  S
C2186      H2197   1.108       .  S
C2186      H2198   1.110       .  S
C2186      H2199   1.109       .  S
C2188      C2189   1.402   1_556  A
C2188      C2193   1.499       .  S
C2189      C2190   1.399       .  A
C2189      H2194   1.085       .  S
C2190      C2191   1.410       .  A
C2191      C2192   1.413   1_554  A
C2191      C2195   1.503       .  S
C2192      H2196   1.078       .  S
C2193      H2203   1.111       .  S
C2193      H2204   1.102       .  S
C2193      H2205   1.102       .  S
C2195      H2206   1.105       .  S
C2195      H2207   1.110       .  S
C2195      H2208   1.110       .  S
C2209      C2210   1.404   1_554  A
C2209      C2214   1.405       .  A
C2209      H2219   1.082   1_554  S
C2210      C3043   1.426   1_556  A
C2210      C2215   1.527       .  S
C2211      C3042   1.427   1_554  A
C2211      C2212   1.424       .  A
C2211      C2216   1.505   1_554  S
C2212      C3045   1.408       .  A
C2212      H2217   1.084       .  S
C2213      C3044   1.408       .  A
C2213      C2214   1.420       .  A
C2214      C2218   1.506       .  S
C2215      C2220   1.424       .  A
C2215      C2224   1.416       .  A
C2216      H2232   1.106       .  S
C2216      H2233   1.111       .  S
C2216      H2234   1.108   1_556  S
C2218      H2229   1.109       .  S
C2218      H2230   1.108       .  S
C2218      H2231   1.106       .  S
C2220      C2221   1.407       .  A
C2220      C2225   1.514       .  S
C2221      C2222   1.407       .  A
C2221      H2226   1.085       .  S
C2222      C2223   1.417       .  A
C2223      C2224   1.421       .  A
C2223      C2227   1.505       .  S
C2224      H2228   1.079       .  S
C2225      H2235   1.111       .  S
C2225      H2236   1.107       .  S
C2225      H3069   1.111       .  S
C2227      H2238   1.108       .  S
C2227      H2239   1.110       .  S
C2227      H3072   1.109       .  S
H2237      C3057   1.110       .  S
H2240      C3059   1.111       .  S
C2241      C2242   1.401       .  A
C2241      C2246   1.402       .  A
C2241      H2251   1.083       .  S
C2242      C2243   1.412       .  A
C2242      C2247   1.495       .  S
C2243      C2244   1.414       .  A
C2243      C2248   1.503       .  S
C2244      C2245   1.408       .  A
C2244      H2249   1.084       .  S
C2245      C2246   1.415       .  A
C2246      C2250   1.502       .  S
C2247      C2252   1.409       .  A
C2247      C2256   1.405       .  A
C2248      H2264   1.111       .  S
C2248      H2265   1.107       .  S
C2248      H2266   1.111       .  S
C2250      H2262   1.109       .  S
C2250      H2263   1.110   1_655  S
C2252      C2253   1.401       .  A
C2252      C2257   1.510       .  S
C2253      C2254   1.413       .  A
C2253      H2258   1.082       .  S
C2254      C2255   1.423       .  A
C2255      C2256   1.419       .  A
C2255      C2259   1.500       .  S
C2256      H2260   1.083       .  S
C2257      H2267   1.110       .  S
C2257      H2268   1.109       .  S
C2257      H2269   1.110       .  S
C2259      H2270   1.103       .  S
C2259      H2271   1.110       .  S
C2259      H2272   1.107       .  S
C2273      C2274   1.399       .  A
C2273      C2278   1.393       .  A
C2273      H2283   1.085       .  S
C2274      C2275   1.411       .  A
C2274      C2279   1.476       .  S
C2275      C2276   1.403       .  A
C2275      C2280   1.501       .  S
C2276      C2277   1.400       .  A
C2276      H2281   1.083       .  S
C2277      C2278   1.414       .  A
C2278      C2282   1.505       .  S
C2279      C2284   1.407       .  A
C2279      C2288   1.403       .  A
C2280      H2296   1.105       .  S
C2280      H2297   1.107       .  S
C2280      H2298   1.104       .  S
C2282      H2293   1.102       .  S
C2282      H2294   1.108       .  S
C2282      H2295   1.106       .  S
C2284      C2285   1.396       .  A
C2284      C2289   1.508   1_655  S
C2285      C2286   1.409       .  A
C2285      H2290   1.083       .  S
C2286      C2287   1.419       .  A
C2287      C2288   1.401       .  A
C2287      C2291   1.509       .  S
C2288      H2292   1.084       .  S
C2289      H2299   1.106       .  S
C2289      H2300   1.107   1_455  S
C2289      H2301   1.105       .  S
C2291      H2302   1.103       .  S
C2291      H2303   1.109       .  S
C2291      H2304   1.107       .  S
C2305      C2306   1.398       .  A
C2305      C2310   1.398       .  A
C2305      H2315   1.085       .  S
C2306      C2307   1.411       .  A
C2306      C2311   1.475       .  S
C2307      C2308   1.403       .  A
C2307      C2312   1.509       .  S
C2308      C2309   1.405       .  A
C2308      H2313   1.082       .  S
C2309      C2310   1.415       .  A
C2310      C2314   1.503       .  S
C2311      C2316   1.408       .  A
C2311      C2320   1.395       .  A
C2312      H2328   1.108       .  S
C2312      H2329   1.108       .  S
C2312      H2330   1.107       .  S
C2314      H2325   1.111       .  S
C2314      H2326   1.109       .  S
C2314      H2327   1.108       .  S
C2316      C2317   1.402   1_556  A
C2316      C2321   1.496       .  S
C2317      C2318   1.399       .  A
C2317      H2322   1.084       .  S
C2318      C2319   1.405       .  A
C2319      C2320   1.390   1_554  A
C2319      C2323   1.505       .  S
C2320      H2324   1.071       .  S
C2321      H2331   1.105   1_556  S
C2321      H2332   1.106       .  S
C2321      H2333   1.105       .  S
C2323      H2334   1.110       .  S
C2323      H2335   1.104       .  S
C2323      H2336   1.110       .  S
C2337      C2338   1.402       .  A
C2337      C2342   1.401       .  A
C2337      H2347   1.085       .  S
C2338      C2339   1.421       .  A
C2338      C2343   1.505       .  S
C2339      C2340   1.414       .  A
C2339      C2344   1.505       .  S
C2340      C2341   1.405       .  A
C2340      H2345   1.081       .  S
C2341      C2342   1.423       .  A
C2342      C2346   1.509       .  S
C2343      C2348   1.416       .  A
C2343      C2352   1.409       .  A
C2344      H2360   1.109       .  S
C2344      H2361   1.110       .  S
C2344      H2362   1.108       .  S
C2346      H2357   1.110       .  S
C2346      H2358   1.111       .  S
C2346      H2359   1.108       .  S
C2348      C2349   1.404       .  A
C2348      C2353   1.500       .  S
C2349      C2350   1.402       .  A
C2349      H2354   1.085       .  S
C2350      C2351   1.416       .  A
C2351      C2352   1.412       .  A
C2351      C2355   1.505       .  S
C2352      H2356   1.084       .  S
C2353      H2363   1.111       .  S
C2353      H2364   1.110       .  S
C2353      H2365   1.094       .  S
C2355      H2366   1.111       .  S
C2355      H2367   1.109       .  S
C2355      H2368   1.110       .  S
C2369      C2370   1.403       .  A
C2369      C2374   1.409       .  A
C2369      H2379   1.084       .  S
C2370      C2371   1.415       .  A
C2370      C2375   1.494       .  S
C2371      C2372   1.406       .  A
C2371      C2376   1.502       .  S
C2372      C2373   1.402       .  A
C2372      H2377   1.085       .  S
C2373      C2374   1.419       .  A
C2374      C2378   1.505       .  S
C2375      C2380   1.411       .  A
C2375      C2384   1.403       .  A
C2376      H2392   1.110       .  S
C2376      H2393   1.108       .  S
C2376      H2394   1.107       .  S
C2378      H2389   1.107       .  S
C2378      H2390   1.111       .  S
C2378      H2391   1.111       .  S
C2380      C2381   1.406       .  A
C2380      C2385   1.506       .  S
C2381      C2382   1.412       .  A
C2381      H2386   1.084       .  S
C2382      C2383   1.422       .  A
C2383      C2384   1.409       .  A
C2383      C2387   1.508       .  S
C2384      H2388   1.084       .  S
C2385      H2395   1.111       .  S
C2385      H2396   1.109       .  S
C2385      H2397   1.105       .  S
C2387      H2398   1.111       .  S
C2387      H2399   1.109       .  S
C2387      H2400   1.107       .  S
C2401      C2402   1.394       .  A
C2401      C2406   1.401       .  A
C2401      H2411   1.085       .  S
C2402      C2403   1.408       .  A
C2402      C2407   1.475       .  S
C2403      C2404   1.400       .  A
C2403      C2408   1.503       .  S
C2404      C2405   1.408       .  A
C2404      H2409   1.084       .  S
C2405      C2406   1.428       .  A
C2406      C2410   1.509       .  S
C2407      C2412   1.410       .  A
C2407      C2416   1.403       .  A
C2408      H2424   1.104       .  S
C2408      H2425   1.108       .  S
C2408      H2426   1.111       .  S
C2410      H2421   1.111       .  S
C2410      H2422   1.104       .  S
C2410      H2423   1.108       .  S
C2412      C2413   1.399   1_556  A
C2412      C2417   1.509       .  S
C2413      C2414   1.401       .  A
C2413      H2418   1.085       .  S
C2414      C2415   1.408       .  A
C2415      C2416   1.404   1_554  A
C2415      C2419   1.505       .  S
C2416      H2420   1.080       .  S
C2417      H2427   1.110       .  S
C2417      H2428   1.110       .  S
C2417      H2429   1.109       .  S
C2419      H2430   1.105       .  S
C2419      H2431   1.110       .  S
C2419      H2432   1.110       .  S
C2433      C2438   1.414   1_556  A
C2433      H2443   1.084       .  S
C2434      C2435   1.418       .  A
C2434      C2439   1.503       .  S
C2435      C2436   1.410       .  A
C2435      C2440   1.510       .  S
C2436      C2437   1.407   1_556  A
C2436      H2441   1.084   1_556  S
C2438      C2442   1.507       .  S
C2439      C2448   1.402       .  A
C2440      H2456   1.108       .  S
C2440      H2457   1.111       .  S
C2440      H2458   1.110       .  S
C2442      H2453   1.110       .  S
C2442      H2454   1.111       .  S
C2442      H2455   1.111       .  S
C2444      C2445   1.408       .  A
C2444      C2449   1.495       .  S
C2445      H2450   1.085       .  S
C2446      C2447   1.420       .  A
C2447      C2448   1.406       .  A
C2447      C2451   1.509       .  S
C2448      H2452   1.084       .  S
C2449      H2459   1.105       .  S
C2449      H2460   1.110       .  S
C2449      H2461   1.109       .  S
C2451      H2462   1.110       .  S
C2451      H2463   1.110       .  S
C2451      H2464   1.105       .  S
C2465      C2466   1.405       .  A
C2465      C2470   1.398       .  A
C2465      H2475   1.085       .  S
C2466      C2467   1.413       .  A
C2466      C2471   1.486       .  S
C2467      C2468   1.405       .  A
C2467      C2472   1.506       .  S
C2468      C2469   1.405       .  A
C2468      H2473   1.084       .  S
C2469      C2470   1.411       .  A
C2470      C2474   1.509       .  S
C2471      C2476   1.404       .  A
C2471      C2480   1.410       .  A
C2472      H2488   1.110       .  S
C2472      H2489   1.108       .  S
C2472      H2490   1.111       .  S
C2474      H2485   1.108       .  S
C2474      H2486   1.109       .  S
C2474      H2487   1.110       .  S
C2476      C2477   1.391       .  A
C2476      C2481   1.500       .  S
C2477      C2478   1.409       .  A
C2477      H2482   1.084       .  S
C2478      C2479   1.415       .  A
C2479      C2480   1.415       .  A
C2479      C2483   1.505       .  S
C2480      H2484   1.084       .  S
C2481      H2491   1.103       .  S
C2481      H2492   1.110       .  S
C2481      H2493   1.103       .  S
C2483      H2494   1.109       .  S
C2483      H2495   1.110       .  S
C2483      H2496   1.111       .  S
N2497      C2501   1.371       .  A
N2497      C2498   1.373       .  A
N2497      C2558   1.477       .  S
C2498      C2499   1.385       .  A
C2498      C3310   1.501       .  S
C2499      C2500   1.360       .  A
C2499      H2502   1.083       .  S
C2500      C2501   1.384       .  A
C2500      H2503   1.079       .  S
C2501      C2804   1.506       .  S
N2504      C2508   1.370       .  A
N2504      C2505   1.365       .  A
N2504      C2768   1.459       .  S
C2505      C2506   1.383       .  A
C2505      C3301   1.470       .  S
C2506      C2507   1.354       .  A
C2506      H2509   1.083       .  S
C2507      C2508   1.378       .  A
C2507      H2510   1.083       .  S
C2508      C2539   1.464       .  S
N2511      C2515   1.383       .  A
N2511      C2512   1.374       .  A
C2512      C2513   1.378       .  A
C2512      C3278   1.492       .  S
C2513      C2514   1.355       .  A
C2513      H2516   1.083       .  S
C2514      C2515   1.389       .  A
C2514      H2517   1.079       .  S
C2515      C2538   1.526       .  S
N2518      C2522   1.373       .  A
N2518      C2519   1.368       .  A
C2519      C2520   1.382       .  A
C2519      C3269   1.497       .  S
C2520      C2521   1.365       .  A
C2520      H2523   1.083       .  S
C2521      C2522   1.382       .  A
C2521      H2524   1.083       .  S
C2522      C2554   1.494       .  S
O2525     Ni2531   1.928       .  S
O2525      C2546   1.278       .  A
O2526     Ni2549   1.898       .  S
O2526      C2535   1.271       .  A
O2527     Ni2531   1.855       .  S
O2527     Ni2549   1.882       .  S
O2527     Ni2543   1.883       .  S
O2527      H2550   0.966       .  S
C2528      C2741   1.476       .  S
C2528      O2545   1.276       .  A
C2528      O2537   1.276       .  A
O2529     Ni2548   1.949       .  S
O2529      C2535   1.279       .  A
O2530     Ni2548   1.917       .  S
O2530      C2532   1.274       .  A
Ni2531     O2534   1.910       .  S
Ni2531     O2536   1.914       .  S
C2532      C2588   1.509       .  S
C2532      O2542   1.279       .  A
O2533     Ni2549   1.909       .  S
O2533      C2539   1.281       .  A
O2534      C2539   1.274       .  A
C2535      C3205   1.480       .  S
O2536      C2538   1.277       .  A
O2537     Ni2548   1.919       .  S
C2538      O2544   1.278       .  A
H2540      O2541   0.966       .  S
O2541     Ni2549   1.894       .  S
O2541     Ni2543   1.893       .  S
O2541     Ni2548   1.870       .  S
O2542     Ni2543   1.976       .  S
Ni2543     O2547   1.902       .  S
Ni2543     O2545   1.910       .  S
O2544     Ni2549   1.976       .  S
C2546      C3237   1.480       .  S
C2546      O2547   1.277       .  A
O2551     Ni2557   1.926       .  S
O2551      C2572   1.274       .  A
O2552     Ni2575   1.888       .  S
O2552      C2561   1.268       .  A
O2553     Ni2557   1.888       .  S
O2553     Ni2575   1.900       .  S
O2553     Ni2569   1.906       .  S
O2553      H2576   0.967       .  S
C2554      O2571   1.279       .  A
C2554      O2563   1.282       .  A
O2555     Ni2574   1.951       .  S
O2555      C2561   1.279       .  A
O2556     Ni2574   1.913       .  S
O2556      C2558   1.279       .  A
Ni2557     O2560   1.910       .  S
Ni2557     O2562   1.919       .  S
C2558      O2568   1.279       .  A
O2559     Ni2575   1.927       .  S
O2559      C2565   1.279       .  A
O2560      C2565   1.271       .  A
C2561      C3214   1.498       .  S
O2562      C2564   1.279       .  A
O2563     Ni2574   1.950       .  S
C2564      N2744   1.466       .  S
C2564      O2570   1.276       .  A
C2565      C2581   1.482       .  S
H2566      O2567   0.966       .  S
O2567     Ni2575   1.904       .  S
O2567     Ni2569   1.891       .  S
O2567     Ni2574   1.881       .  S
O2568     Ni2569   1.975       .  S
Ni2569     O2573   1.897       .  S
Ni2569     O2571   1.919       .  S
O2570     Ni2575   1.965       .  S
C2572      C3246   1.472       .  S
C2572      O2573   1.269       .  A
N2577      C2581   1.367       .  A
N2577      C2578   1.366       .  A
N2577      C2620   1.458       .  S
C2578      C2579   1.390       .  A
C2578      C3173   1.501       .  S
C2579      C2580   1.368       .  A
C2579      H2582   1.083       .  S
C2580      C2581   1.375       .  A
C2580      H2583   1.082       .  S
N2584      C2588   1.384       .  A
N2584      C2585   1.376       .  A
N2584      C2604   1.463       .  S
C2585      C2586   1.372       .  A
C2585      C3182   1.486       .  S
C2586      C2587   1.339       .  A
C2586      H2589   1.083       .  S
C2587      C2588   1.389       .  A
C2587      H2590   1.083       .  S
O2591     Ni2597   1.946       .  S
O2591      C2612   1.279       .  A
O2592     Ni2615   1.916       .  S
O2592      C2601   1.277       .  A
O2593     Ni2597   1.891       .  S
O2593     Ni2615   1.892       .  S
O2593     Ni2609   1.914       .  S
O2593      H2616   0.966       .  S
C2594      C2654   1.494       .  S
C2594      O2611   1.283       .  A
C2594      O2603   1.276       .  A
O2595     Ni2614   1.931       .  S
O2595      C2601   1.276       .  A
O2596     Ni2614   1.928       .  S
O2596      C2598   1.279       .  A
Ni2597     O2600   1.946       .  S
Ni2597     O2602   1.920       .  S
C2598      O2608   1.281       .  A
O2599     Ni2615   1.913       .  S
O2599      C2605   1.280       .  A
O2600      C2605   1.279       .  A
C2601      C3141   1.499       .  S
O2602      C2604   1.276       .  A
O2603     Ni2614   1.933       .  S
C2604      O2610   1.286       .  A
C2605      C2661   1.499       .  S
H2606      O2607   0.967       .  S
O2607     Ni2615   1.909       .  S
O2607     Ni2609   1.888       .  S
O2607     Ni2614   1.885       .  S
O2608     Ni2609   1.979       .  S
Ni2609     O2613   1.900       .  S
Ni2609     O2611   1.935       .  S
O2610     Ni2615   1.981       .  S
C2612      C3109   1.476       .  S
C2612      O2613   1.273       .  A
O2617     Ni2623   1.932       .  S
O2617      C2638   1.271       .  A
O2618     Ni2641   1.915       .  S
O2618      C2627   1.273       .  A
O2619     Ni2623   1.895       .  S
O2619     Ni2641   1.922       .  S
O2619     Ni2635   1.913       .  S
O2619      H2642   0.966       .  S
C2620      O2637   1.274       .  A
C2620      O2629   1.279       .  A
O2621     Ni2640   1.931       .  S
O2621      C2627   1.273       .  A
O2622     Ni2640   1.918       .  S
O2622      C2624   1.268       .  A
Ni2623     O2626   1.918       .  S
Ni2623     O2628   1.908       .  S
C2624      C2668   1.515       .  S
C2624      O2634   1.275       .  A
O2625     Ni2641   1.953       .  S
O2625      C2631   1.283       .  A
O2626      C2631   1.270       .  A
C2627      C3150   1.482       .  S
O2628      C2630   1.278       .  A
O2629     Ni2640   1.944       .  S
C2630      C2647   1.526       .  S
C2630      O2636   1.277       .  A
H2632      O2633   0.966       .  S
O2633     Ni2641   1.921       .  S
O2633     Ni2635   1.920       .  S
O2633     Ni2640   1.889       .  S
O2634     Ni2635   1.981       .  S
Ni2635     O2639   1.895       .  S
Ni2635     O2637   1.928       .  S
O2636     Ni2641   1.973       .  S
C2638      C3118   1.492       .  S
C2638      O2639   1.262       .  A
N2643      C2647   1.381       .  A
N2643      C2644   1.376       .  A
N2643      C2704   1.484       .  S
C2644      C2645   1.376       .  A
C2644      C3086   1.502       .  S
C2645      C2646   1.359       .  A
C2645      H2648   1.078       .  S
C2646      C2647   1.387       .  A
C2646      H2649   1.081   1_655  S
N2650      C2654   1.374       .  A
N2650      C2651   1.366       .  A
N2650      C2685   1.450       .  S
C2651      C2652   1.382       .  A
C2651      C3077   1.493       .  S
C2652      C2653   1.367       .  A
C2652      H2655   1.083       .  S
C2653      C2654   1.382       .  A
C2653      H2656   1.083   1_655  S
N2657      C2658   1.379       .  A
N2657      C2674   1.464       .  S
C2658      C3054   1.511       .  S
C2659      C2660   1.352       .  A
C2659      H2662   1.083       .  S
C2660      C2661   1.379       .  A
C2660      H2663   1.082       .  S
N2664      C2665   1.379       .  A
N2664      C2710   1.479       .  S
C2665      C3045   1.505       .  S
C2666      C2667   1.366   1_545  A
C2666      H2669   1.077   1_545  S
C2667      C2668   1.393       .  A
C2667      H2670   1.083       .  S
O2671     Ni2677   1.923       .  S
O2671      C2692   1.272       .  A
O2672     Ni2695   1.898       .  S
O2672      C2681   1.267       .  A
O2673     Ni2677   1.880       .  S
O2673     Ni2695   1.902       .  S
O2673     Ni2689   1.923       .  S
O2673      H2696   0.966       .  S
C2674      O2691   1.280       .  A
C2674      O2683   1.280       .  A
O2675     Ni2694   1.930       .  S
O2675      C2681   1.273       .  A
O2676     Ni2694   1.914       .  S
O2676      C2678   1.269       .  A
Ni2677     O2680   1.930       .  S
Ni2677     O2682   1.914       .  S
C2678      N2730   1.482       .  S
C2678      O2688   1.286       .  A
O2679     Ni2695   1.947       .  S
O2679      C2685   1.283       .  A
O2680      C2685   1.276       .  A
C2681      C2981   1.465       .  S
O2682      C2684   1.278       .  A
O2683     Ni2694   1.949       .  S
C2684      O2690   1.282       .  A
H2686      O2687   0.966       .  S
O2687     Ni2695   1.930       .  S
O2687     Ni2689   1.921       .  S
O2687     Ni2694   1.890       .  S
O2688     Ni2689   2.005       .  S
Ni2689     O2693   1.915       .  S
Ni2689     O2691   1.945       .  S
O2690     Ni2695   1.983       .  S
C2692      C3013   1.494       .  S
C2692      O2693   1.275       .  A
O2697     Ni2703   1.936       .  S
O2697      C2718   1.272       .  A
O2698     Ni2721   1.932       .  S
O2698      C2707   1.282       .  A
O2699     Ni2703   1.881       .  S
O2699     Ni2721   1.923       .  S
O2699     Ni2715   1.931       .  S
O2699      H2722   0.966       .  S
C2700      O2717   1.285       .  A
C2700      O2709   1.269       .  A
O2701     Ni2720   1.902       .  S
O2701      C2707   1.269       .  A
O2702     Ni2720   1.915       .  S
O2702      C2704   1.278       .  A
Ni2703     O2706   1.932       .  S
Ni2703     O2708   1.916       .  S
C2704      O2714   1.280       .  A
O2705     Ni2721   1.974       .  S
O2705      C2711   1.283       .  A
O2706      C2711   1.275       .  A
C2707      C2990   1.494       .  S
O2708      C2710   1.276       .  A
O2709     Ni2720   1.905       .  S
C2710      O2716   1.291       .  A
C2711      N2723   1.472       .  S
H2712      O2713   0.966       .  S
O2713     Ni2721   1.920       .  S
O2713     Ni2715   1.902       .  S
O2713     Ni2720   1.880       .  S
O2714     Ni2715   1.986       .  S
Ni2715     O2719   1.909       .  S
Ni2715     O2717   1.959       .  S
O2716     Ni2721   1.999       .  S
C2718      C3022   1.483       .  S
C2718      O2719   1.269       .  A
N2723      C2727   1.373       .  A
N2723      C2724   1.381       .  A
C2724      C2725   1.391       .  A
C2724      C2949   1.506       .  S
C2725      C2726   1.352       .  A
C2725      H2728   1.083       .  S
C2726      C2727   1.370       .  A
C2726      H2729   1.083       .  S
C2727      C2794   1.473       .  S
N2730      C2734   1.384       .  A
N2730      C2731   1.369       .  A
C2731      C2732   1.374       .  A
C2731      C2958   1.505       .  S
C2732      C2733   1.375       .  A
C2732      H2735   1.076       .  S
C2733      C2734   1.395       .  A
C2733      H2736   1.084       .  S
C2734      C2778   1.525       .  S
N2737      C2738   1.359       .  A
N2737      C2779   1.449       .  S
C2738      C2917   1.484       .  S
C2739      C2740   1.357       .  A
C2739      H2742   1.083       .  S
C2740      C2741   1.376       .  A
C2740      H2743   1.082       .  S
N2744      C2745   1.372       .  A
C2745      C2926   1.487       .  S
C2746      C2747   1.361       .  A
C2746      H2749   1.081       .  S
C2747      C2748   1.387       .  A
C2747      H2750   1.082       .  S
C2748      C2798   1.513       .  S
N2751      C2755   1.381       .  A
N2751      C2752   1.375       .  A
N2751      C2772   1.481       .  S
C2752      C2753   1.374       .  A
C2752      C2885   1.500       .  S
C2754      H2757   1.084       .  S
N2758      C2762   1.374       .  A
N2758      C2759   1.368       .  A
C2759      C2760   1.384       .  A
C2759      C2894   1.489       .  S
C2760      C2761   1.361       .  A
C2760      H2763   1.083       .  S
C2761      C2762   1.380       .  A
C2761      H2764   1.078       .  S
C2762      C2805   1.501       .  S
O2765     Ni2771   1.927       .  S
O2765      C2786   1.273       .  A
O2766     Ni2789   1.911       .  S
O2766      C2775   1.267       .  A
O2767     Ni2771   1.896       .  S
O2767     Ni2789   1.921       .  S
O2767     Ni2783   1.909       .  S
O2767      H2790   0.967       .  S
C2768      O2785   1.275       .  A
C2768      O2777   1.272       .  A
O2769     Ni2788   1.936       .  S
O2769      C2775   1.271       .  A
O2770     Ni2788   1.909       .  S
O2770      C2772   1.274       .  A
Ni2771     O2774   1.938       .  S
Ni2771     O2776   1.918       .  S
C2772      O2782   1.285       .  A
O2773     Ni2789   1.920       .  S
O2773      C2779   1.274       .  A
O2774      C2779   1.279       .  A
C2775      C2853   1.477       .  S
O2776      C2778   1.265       .  A
O2777     Ni2788   1.925       .  S
C2778      O2784   1.281       .  A
H2780      O2781   0.966       .  S
O2781     Ni2789   1.911       .  S
O2781     Ni2783   1.925       .  S
O2781     Ni2788   1.901       .  S
O2782     Ni2783   1.993       .  S
Ni2783     O2787   1.908       .  S
Ni2783     O2785   1.940       .  S
O2784     Ni2789   1.997       .  S
C2786      C2830   1.497       .  S
C2786      O2787   1.270       .  A
O2791     Ni2797   1.955       .  S
O2791      C2812   1.278       .  A
O2792     Ni2815   1.896       .  S
O2792      C2801   1.266       .  A
O2793     Ni2797   1.889       .  S
O2793     Ni2815   1.899       .  S
O2793     Ni2809   1.900       .  S
O2793      H2816   0.966       .  S
C2794      O2811   1.271       .  A
C2794      O2803   1.275       .  A
O2795     Ni2814   1.915       .  S
O2795      C2801   1.274       .  A
O2796     Ni2814   1.906       .  S
O2796      C2798   1.269       .  A
Ni2797     O2800   1.942       .  S
Ni2797     O2802   1.907       .  S
C2798      O2808   1.274       .  A
O2799     Ni2815   1.924       .  S
O2799      C2805   1.278       .  A
O2800      C2805   1.280       .  A
C2801      C2862   1.489       .  S
O2802      C2804   1.274       .  A
O2803     Ni2814   1.942       .  S
C2804      O2810   1.275       .  A
H2806      O2807   0.967       .  S
O2807     Ni2815   1.917       .  S
O2807     Ni2809   1.907       .  S
O2807     Ni2814   1.887       .  S
O2808     Ni2809   1.983       .  S
Ni2809     O2813   1.892       .  S
Ni2809     O2811   1.893       .  S
O2810     Ni2815   1.956       .  S
C2812      C2821   1.477       .  S
C2812      O2813   1.264       .  A
C2817      C2818   1.400       .  A
C2817      C2822   1.401       .  A
C2817      H2827   1.082       .  S
C2818      C2819   1.412       .  A
C2818      C2823   1.489       .  S
C2819      C2820   1.410       .  A
C2819      C2824   1.503       .  S
C2820      C2821   1.403       .  A
C2820      H2825   1.084       .  S
C2821      C2822   1.418       .  A
C2822      C2826   1.508       .  S
C2823      C2828   1.408       .  A
C2823      C2832   1.406       .  A
C2824      H2840   1.103       .  S
C2824      H2841   1.108       .  S
C2824      H2842   1.110       .  S
C2826      H2837   1.110       .  S
C2826      H2838   1.106       .  S
C2826      H2839   1.107       .  S
C2828      C2829   1.401       .  A
C2828      C2833   1.509       .  S
C2829      C2830   1.412       .  A
C2829      H2834   1.083       .  S
C2830      C2831   1.418       .  A
C2831      C2832   1.409       .  A
C2831      C2835   1.507       .  S
C2832      H2836   1.083       .  S
C2833      H2843   1.111       .  S
C2833      H2844   1.109       .  S
C2833      H2845   1.109       .  S
C2835      H2846   1.110       .  S
C2835      H2847   1.109       .  S
C2835      H2848   1.110       .  S
C2849      C2850   1.403       .  A
C2849      C2854   1.404       .  A
C2849      H2859   1.083       .  S
C2850      C2851   1.414       .  A
C2850      C2855   1.484       .  S
C2851      C2852   1.406       .  A
C2851      C2856   1.508       .  S
C2852      C2853   1.404       .  A
C2852      H2857   1.084       .  S
C2853      C2854   1.413       .  A
C2854      C2858   1.506       .  S
C2855      C2860   1.411       .  A
C2855      C2864   1.408   1_556  A
C2856      H2872   1.109       .  S
C2856      H2873   1.109       .  S
C2856      H2874   1.110       .  S
C2858      H2869   1.111       .  S
C2858      H2870   1.110       .  S
C2858      H2871   1.110       .  S
C2860      C2861   1.387   1_556  A
C2860      C2865   1.505       .  S
C2861      C2862   1.405       .  A
C2861      H2866   1.085       .  S
C2862      C2863   1.419       .  A
C2863      C2864   1.413       .  A
C2863      C2867   1.507       .  S
C2864      H2868   1.084   1_554  S
C2865      H2875   1.105       .  S
C2865      H2876   1.104       .  S
C2865      H2877   1.106       .  S
C2867      H2878   1.110       .  S
C2867      H2879   1.106       .  S
C2867      H2880   1.109       .  S
C2881      C2882   1.401       .  A
C2881      C2886   1.402       .  A
C2881      H2891   1.085       .  S
C2882      C2883   1.420       .  A
C2882      C2887   1.502       .  S
C2883      C2884   1.416       .  A
C2883      C2888   1.504       .  S
C2884      C2885   1.407       .  A
C2884      H2889   1.084       .  S
C2885      C2886   1.422       .  A
C2886      C2890   1.507       .  S
C2887      C2892   1.417       .  A
C2887      C2896   1.408       .  A
C2888      H2904   1.111       .  S
C2888      H2905   1.106       .  S
C2888      H2906   1.110       .  S
C2890      H2901   1.109       .  S
C2890      H2902   1.110       .  S
C2890      H2903   1.104       .  S
C2892      C2893   1.412   1_556  A
C2892      C2897   1.505       .  S
C2893      C2894   1.409       .  A
C2893      H2898   1.085       .  S
C2895      C2899   1.506   1_556  S
C2897      H2907   1.110       .  S
C2897      H2908   1.109       .  S
C2897      H2909   1.107       .  S
C2899      H2910   1.111   1_554  S
C2899      H2911   1.109   1_554  S
C2899      H2912   1.110       .  S
C2913      C2918   1.419       .  A
C2913      H2923   1.084   1_545  S
C2914      C2915   1.411       .  A
C2915      C2916   1.406       .  A
C2915      C2920   1.498       .  S
C2916      C2917   1.400       .  A
C2916      H2921   1.084       .  S
C2918      C2922   1.505   1_545  S
C2919      C2928   1.400   1_546  A
C2920      H2936   1.107       .  S
C2920      H2937   1.107       .  S
C2920      H2938   1.108       .  S
C2922      H2933   1.111       .  S
C2922      H2934   1.110       .  S
C2922      H2935   1.110   1_565  S
C2924      C2925   1.410       .  A
C2924      C2929   1.504       .  S
C2925      H2930   1.084       .  S
C2926      C2927   1.414       .  A
C2927      C2928   1.403       .  A
C2927      C2931   1.497       .  S
C2928      H2932   1.085   1_554  S
C2929      H2939   1.110       .  S
C2929      H2941   1.110       .  S
C2931      H2942   1.110       .  S
C2931      H2943   1.106       .  S
C2931      H2944   1.111       .  S
C2945      C2946   1.414       .  A
C2945      C2950   1.420       .  A
C2945      H2955   1.084       .  S
C2946      C2947   1.418       .  A
C2946      C2951   1.517       .  S
C2947      C2948   1.405       .  A
C2947      C2952   1.507       .  S
C2948      C2949   1.410       .  A
C2948      H2953   1.086       .  S
C2949      C2950   1.418       .  A
C2950      C2954   1.504       .  S
C2951      C2956   1.426       .  A
C2951      C2960   1.408       .  A
C2952      H2968   1.105       .  S
C2952      H2969   1.105       .  S
C2952      H2970   1.111       .  S
C2954      H2965   1.111       .  S
C2954      H2966   1.110       .  S
C2954      H2967   1.107       .  S
C2956      C2957   1.411       .  A
C2956      C2961   1.505       .  S
C2957      C2958   1.405       .  A
C2957      H2962   1.084       .  S
C2958      C2959   1.415       .  A
C2959      C2960   1.412       .  A
C2959      C2963   1.504       .  S
C2960      H2964   1.084       .  S
C2961      H2971   1.107       .  S
C2961      H2972   1.103       .  S
C2961      H2973   1.110       .  S
C2963      H2974   1.111       .  S
C2963      H2975   1.110       .  S
C2963      H2976   1.106       .  S
C2977      C2978   1.403       .  A
C2977      C2982   1.404       .  A
C2977      H2987   1.076       .  S
C2978      C2979   1.409       .  A
C2978      C2983   1.485       .  S
C2979      C2980   1.399       .  A
C2979      C2984   1.503       .  S
C2980      C2981   1.401       .  A
C2980      H2985   1.085       .  S
C2981      C2982   1.411       .  A
C2982      C2986   1.506       .  S
C2983      C2988   1.407       .  A
C2983      C2992   1.402       .  A
C2984      H3000   1.108       .  S
C2984      H3001   1.108       .  S
C2984      H3002   1.111       .  S
C2986      H2997   1.110   1_655  S
C2986      H2998   1.109       .  S
C2986      H2999   1.109       .  S
C2988      C2989   1.401       .  A
C2988      C2993   1.501   1_655  S
C2989      C2990   1.411       .  A
C2989      H2994   1.085       .  S
C2990      C2991   1.408       .  A
C2991      C2992   1.405       .  A
C2991      C2995   1.490       .  S
C2992      H2996   1.080       .  S
C2993      H3003   1.105       .  S
C2993      H3004   1.107       .  S
C2993      H3005   1.110       .  S
C2995      H3006   1.104       .  S
C2995      H3007   1.106       .  S
C2995      H3008   1.105       .  S
C3009      C3010   1.401       .  A
C3009      C3014   1.406       .  A
C3009      H3019   1.082       .  S
C3010      C3011   1.416       .  A
C3010      C3015   1.505       .  S
C3011      C3012   1.405       .  A
C3011      C3016   1.491       .  S
C3012      C3013   1.401       .  A
C3012      H3017   1.084       .  S
C3013      C3014   1.423       .  A
C3014      C3018   1.510       .  S
C3015      C3020   1.418       .  A
C3015      C3024   1.408       .  A
C3016      H3032   1.102       .  S
C3016      H3033   1.111       .  S
C3016      H3034   1.105       .  S
C3018      H3029   1.105       .  S
C3018      H3030   1.109       .  S
C3018      H3031   1.106       .  S
C3020      C3021   1.405   1_556  A
C3020      C3025   1.504       .  S
C3021      C3022   1.400       .  A
C3021      H3026   1.085       .  S
C3022      C3023   1.412       .  A
C3023      C3024   1.414   1_554  A
C3023      C3027   1.505       .  S
C3024      H3028   1.082       .  S
C3025      H3035   1.111       .  S
C3025      H3036   1.100       .  S
C3025      H3037   1.105       .  S
C3027      H3038   1.110       .  S
C3027      H3039   1.110       .  S
C3027      H3040   1.110       .  S
C3041      C3042   1.405   1_554  A
C3041      C3046   1.403       .  A
C3041      H3051   1.078   1_554  S
C3042      C3047   1.530       .  S
C3043      C3044   1.422       .  A
C3043      C3048   1.507   1_544  S
C3044      H3049   1.084   1_545  S
C3045      C3046   1.420       .  A
C3046      C3050   1.505       .  S
C3047      C3052   1.425       .  A
C3047      C3056   1.416       .  A
C3048      H3064   1.108   1_565  S
C3048      H3065   1.109       .  S
C3048      H3066   1.111   1_556  S
C3050      H3061   1.108       .  S
C3050      H3062   1.107       .  S
C3050      H3063   1.102       .  S
C3052      C3053   1.407       .  A
C3052      C3057   1.514       .  S
C3053      C3054   1.409       .  A
C3053      H3058   1.085       .  S
C3054      C3055   1.420       .  A
C3055      C3056   1.422       .  A
C3055      C3059   1.505       .  S
C3056      H3060   1.078       .  S
C3057      H3067   1.112       .  S
C3057      H3068   1.108       .  S
C3059      H3070   1.107       .  S
C3059      H3071   1.110       .  S
C3073      C3074   1.402       .  A
C3073      C3078   1.403       .  A
C3073      H3083   1.085       .  S
C3074      C3075   1.413       .  A
C3074      C3079   1.495       .  S
C3075      C3076   1.414       .  A
C3075      C3080   1.504       .  S
C3076      C3077   1.408       .  A
C3076      H3081   1.084       .  S
C3077      C3078   1.417       .  A
C3078      C3082   1.505       .  S
C3079      C3084   1.411       .  A
C3079      C3088   1.406       .  A
C3080      H3096   1.110       .  S
C3080      H3097   1.107       .  S
C3080      H3098   1.111       .  S
C3082      H3094   1.110       .  S
C3082      H3095   1.110   1_655  S
C3084      C3085   1.404       .  A
C3084      C3089   1.509       .  S
C3085      C3086   1.411       .  A
C3085      H3090   1.085       .  S
C3086      C3087   1.415       .  A
C3087      C3088   1.416       .  A
C3087      C3091   1.501       .  S
C3088      H3092   1.081       .  S
C3089      H3099   1.107       .  S
C3089      H3100   1.110       .  S
C3089      H3101   1.107       .  S
C3091      H3102   1.102       .  S
C3091      H3103   1.110       .  S
C3091      H3104   1.109       .  S
C3105      C3106   1.400       .  A
C3105      C3110   1.396       .  A
C3105      H3115   1.084       .  S
C3106      C3107   1.414       .  A
C3106      C3111   1.485       .  S
C3107      C3108   1.409       .  A
C3107      C3112   1.505       .  S
C3108      C3109   1.404       .  A
C3108      H3113   1.084       .  S
C3109      C3110   1.415       .  A
C3110      C3114   1.506       .  S
C3111      C3116   1.410       .  A
C3111      C3120   1.400       .  A
C3112      H3128   1.104       .  S
C3112      H3129   1.108       .  S
C3112      H3130   1.107   1_655  S
C3114      H3125   1.102       .  S
C3114      H3126   1.107       .  S
C3114      H3127   1.107       .  S
C3116      C3117   1.404       .  A
C3116      C3121   1.506   1_655  S
C3117      C3118   1.409       .  A
C3117      H3122   1.083       .  S
C3118      C3119   1.421       .  A
C3119      C3120   1.402       .  A
C3119      C3123   1.506       .  S
C3120      H3124   1.084       .  S
C3121      H3131   1.107       .  S
C3121      H3132   1.107   1_455  S
C3121      H3133   1.106       .  S
C3123      H3134   1.105       .  S
C3123      H3135   1.110       .  S
C3123      H3136   1.106       .  S
C3137      C3138   1.399       .  A
C3137      C3142   1.400       .  A
C3137      H3147   1.082       .  S
C3138      C3139   1.419       .  A
C3138      C3143   1.499       .  S
C3139      C3140   1.409       .  A
C3139      C3144   1.504       .  S
C3140      C3141   1.406       .  A
C3140      H3145   1.083       .  S
C3141      C3142   1.422       .  A
C3142      C3146   1.503       .  S
C3143      C3148   1.419       .  A
C3143      C3152   1.403       .  A
C3144      H3160   1.110       .  S
C3144      H3161   1.106       .  S
C3144      H3162   1.109       .  S
C3146      H3157   1.110       .  S
C3146      H3158   1.109       .  S
C3146      H3159   1.109       .  S
C3148      C3149   1.408   1_556  A
C3148      C3153   1.501       .  S
C3149      C3150   1.400       .  A
C3149      H3154   1.084       .  S
C3150      C3151   1.415       .  A
C3151      C3152   1.403   1_554  A
C3151      C3155   1.505       .  S
C3152      H3156   1.083       .  S
C3153      H3163   1.109   1_556  S
C3153      H3164   1.109       .  S
C3153      H3165   1.108       .  S
C3155      H3166   1.106       .  S
C3155      H3167   1.110       .  S
C3155      H3168   1.109       .  S
C3169      C3170   1.400       .  A
C3169      C3174   1.402       .  A
C3169      H3179   1.085       .  S
C3170      C3171   1.417       .  A
C3170      C3175   1.501       .  S
C3171      C3172   1.411       .  A
C3171      C3176   1.497       .  S
C3172      C3173   1.403       .  A
C3172      H3177   1.081       .  S
C3173      C3174   1.424       .  A
C3174      C3178   1.508       .  S
C3175      C3180   1.416       .  A
C3175      C3184   1.408       .  A
C3176      H3192   1.108       .  S
C3176      H3193   1.110       .  S
C3176      H3194   1.106       .  S
C3178      H3189   1.110       .  S
C3178      H3190   1.111       .  S
C3178      H3191   1.108       .  S
C3180      C3181   1.404       .  A
C3180      C3185   1.503       .  S
C3181      C3182   1.405       .  A
C3181      H3186   1.085       .  S
C3182      C3183   1.415       .  A
C3183      C3184   1.412       .  A
C3183      C3187   1.505       .  S
C3184      H3188   1.084       .  S
C3185      H3195   1.111       .  S
C3185      H3196   1.110       .  S
C3185      H3197   1.097       .  S
C3187      H3198   1.111       .  S
C3187      H3199   1.109       .  S
C3187      H3200   1.110       .  S
C3201      C3202   1.401       .  A
C3201      C3206   1.405       .  A
C3201      H3211   1.083       .  S
C3202      C3203   1.413       .  A
C3202      C3207   1.487       .  S
C3203      C3204   1.403       .  A
C3203      C3208   1.501       .  S
C3204      C3205   1.399       .  A
C3204      H3209   1.084       .  S
C3205      C3206   1.417       .  A
C3206      C3210   1.503       .  S
C3207      C3212   1.412       .  A
C3207      C3216   1.401       .  A
C3208      H3224   1.105       .  S
C3208      H3225   1.109       .  S
C3208      H3226   1.110       .  S
C3210      H3221   1.106       .  S
C3210      H3222   1.111       .  S
C3210      H3223   1.111       .  S
C3212      C3213   1.403       .  A
C3212      C3217   1.507       .  S
C3213      C3214   1.410       .  A
C3213      H3218   1.084       .  S
C3214      C3215   1.423       .  A
C3215      C3216   1.406       .  A
C3215      C3219   1.508       .  S
C3216      H3220   1.084       .  S
C3217      H3227   1.108       .  S
C3217      H3228   1.111       .  S
C3217      H3229   1.107       .  S
C3219      H3230   1.111       .  S
C3219      H3231   1.106       .  S
C3219      H3232   1.105       .  S
C3233      C3234   1.399       .  A
C3233      C3238   1.402       .  A
C3233      H3243   1.084       .  S
C3234      C3235   1.412       .  A
C3234      C3239   1.478       .  S
C3235      C3236   1.403       .  A
C3235      C3240   1.509       .  S
C3236      C3237   1.405       .  A
C3236      H3241   1.082       .  S
C3237      C3238   1.418       .  A
C3238      C3242   1.508       .  S
C3239      C3244   1.411   1_556  A
C3239      C3248   1.399       .  A
C3240      H3256   1.109       .  S
C3240      H3257   1.110       .  S
C3240      H3258   1.109       .  S
C3242      H3253   1.109       .  S
C3242      H3254   1.110       .  S
C3242      H3255   1.109       .  S
C3244      C3245   1.403       .  A
C3244      C3249   1.506   1_554  S
C3245      C3246   1.404       .  A
C3245      H3250   1.084       .  S
C3246      C3247   1.413       .  A
C3247      C3248   1.400   1_554  A
C3247      C3251   1.507       .  S
C3248      H3252   1.082       .  S
C3249      H3259   1.108   1_556  S
C3249      H3260   1.109       .  S
C3249      H3261   1.111       .  S
C3251      H3262   1.108       .  S
C3251      H3263   1.110       .  S
C3251      H3264   1.109       .  S
C3265      C3270   1.416   1_556  A
C3265      H3275   1.084       .  S
C3266      C3267   1.418       .  A
C3266      C3271   1.503       .  S
C3267      C3268   1.408       .  A
C3267      C3272   1.509       .  S
C3268      C3269   1.406   1_556  A
C3268      H3273   1.084   1_556  S
C3270      C3274   1.505   1_655  S
C3271      C3280   1.402       .  A
C3272      H3288   1.110       .  S
C3272      H3289   1.106       .  S
C3272      H3290   1.111       .  S
C3274      H3285   1.110   1_455  S
C3274      H3286   1.111       .  S
C3274      H3287   1.110       .  S
C3276      C3277   1.413       .  A
C3276      C3281   1.498       .  S
C3277      H3282   1.084       .  S
C3278      C3279   1.420       .  A
C3279      C3280   1.406       .  A
C3279      C3283   1.504       .  S
C3280      H3284   1.085       .  S
C3281      H3291   1.106       .  S
C3281      H3292   1.109       .  S
C3281      H3293   1.110       .  S
C3283      H3294   1.111       .  S
C3283      H3295   1.106       .  S
C3283      H3296   1.110       .  S
C3297      C3298   1.406       .  A
C3297      C3302   1.398       .  A
C3297      H3307   1.085       .  S
C3298      C3299   1.415       .  A
C3298      C3303   1.489       .  S
C3299      C3300   1.407       .  A
C3299      C3304   1.506       .  S
C3300      C3301   1.406       .  A
C3300      H3305   1.084       .  S
C3301      C3302   1.411       .  A
C3302      C3306   1.506       .  S
C3303      C3308   1.407       .  A
C3303      C3312   1.413       .  A
C3304      H3320   1.110       .  S
C3304      H3321   1.108       .  S
C3304      H3322   1.111       .  S
C3306      H3317   1.108       .  S
C3306      H3318   1.111       .  S
C3306      H3319   1.108       .  S
C3308      C3309   1.390       .  A
C3308      C3313   1.503       .  S
C3309      C3310   1.411       .  A
C3309      H3314   1.084       .  S
C3310      C3311   1.410       .  A
C3311      C3312   1.417       .  A
C3311      C3315   1.505       .  S
C3312      H3316   1.084       .  S
C3313      H3323   1.103       .  S
C3313      H3324   1.110       .  S
C3313      H3325   1.102       .  S
C3315      H3326   1.108       .  S
C3315      H3327   1.110       .  S
C3315      H3328   1.111       .  S
