geometry optimzed in LAMMPS
_audit_creation_date              2020-12-01 
_audit_creation_method            'lammps2cif' 
_symmetry_space_group_name_H-M    'P1' 
_symmetry_Int_Tables_number       1 
_symmetry_cell_setting            triclinic 
loop_ 
_symmetry_equiv_pos_as_xyz 
  x,y,z 
_cell_length_a                    65.30867621 
_cell_length_b                    64.68301533374992 
_cell_length_c                    36.07141202726331 
_cell_angle_alpha                 89.96682105945328 
_cell_angle_beta                  89.75556341305837 
_cell_angle_gamma                 89.96644311083257 
loop_ 
_atom_site_label 
_atom_site_type_symbol 
_atom_site_fract_x 
_atom_site_fract_y 
_atom_site_fract_z 
_atom_site_charge 
C1          C  0.27830407  0.51288444  0.14823263     0.80200
N2          N  0.27705666  0.51219645  0.18585168    -0.78100
C3          C  0.27835596  0.49394945  0.20407736     0.82600
N4          N  0.28069343  0.47629534  0.18451037    -0.78100
C5          C  0.28206113  0.47663888  0.14699939     0.82700
N6          N  0.28133372  0.49506793  0.12873774    -0.79800
C7          C  0.28941191  0.47464157  0.29807789     0.80200
N8          N  0.28436007  0.47522294  0.26164395    -0.78100
C9          C  0.28048522  0.49342471  0.24449537     0.82600
N10         N  0.28137462  0.51122210  0.26414690    -0.78100
C11         C  0.28637815  0.51092847  0.30066324     0.82700
N12         N  0.29082446  0.49262039  0.31751668    -0.79800
C13         C  0.08591195  0.82316685  0.39955321     0.80200
N14         N  0.10410672  0.82039194  0.38154168    -0.78100
C15         C  0.12202804  0.82269979  0.40037570     0.82600
N16         N  0.12160274  0.82689900  0.43728816    -0.78100
C17         C  0.10353657  0.82907491  0.45546264     0.82700
N18         N  0.08582694  0.82734250  0.43642166    -0.79800
C19         C  0.12017479  0.82765324  0.05320144     0.80200
N20         N  0.10186301  0.82599615  0.07112950    -0.78100
C21         C  0.08407591  0.82714728  0.05167069     0.82600
N22         N  0.08480877  0.82916515  0.01420010    -0.78100
C23         C  0.10298029  0.83032008  0.99607925     0.82700
N24         N  0.12058453  0.82960727  0.01569437    -0.79800
O25         O  0.39227732  0.71849877  0.32685556    -0.78500
C26         C  0.33519043  0.68786766  0.35352242     0.82500
O27         O  0.34231711  0.76163166  0.26882295    -0.79600
O28         O  0.30128837  0.74538827  0.37515612    -0.81100
O29         O  0.36614194  0.74899019  0.44344880    -0.80900
O30         O  0.40080139  0.73676457  0.37663556    -0.79500
Zn31       Zn  0.36176584  0.72226448  0.32017615     1.55700
O32         O  0.33496386  0.73494161  0.44248619    -0.80900
Cd33       Cd  0.37367222  0.75218321  0.38780474     1.59700
Cd34       Cd  0.34023470  0.76722759  0.32559790     1.59600
O35         O  0.37913220  0.78299771  0.37945168    -0.80900
O36         O  0.35119002  0.74300697  0.35432293    -1.91400
Cd37       Cd  0.32896480  0.73114813  0.38624732     1.59900
O38         O  0.35640467  0.79420061  0.33810704    -0.80900
O39         O  0.32607705  0.69987737  0.37622687    -0.79500
C40         C  0.34900035  0.74613594  0.25058070     0.83000
C41         C  0.40555232  0.72447743  0.35036067     0.82600
O42         O  0.34867893  0.69455965  0.33081761    -0.78500
C43         C  0.35026048  0.74219130  0.46001864     0.83500
O44         O  0.35654488  0.73028694  0.26652262    -0.78600
C45         C  0.37138724  0.79743647  0.36001750     0.83600
C46         C  0.29622247  0.76125296  0.35626034     0.83900
O47         O  0.30934473  0.77151203  0.33744504    -0.81000
O48         O  0.37459657  0.78674583  0.12826190    -0.78500
C49         C  0.34799479  0.74653408  0.20994978     0.82500
O50         O  0.38833384  0.71634027  0.08523829    -0.79600
O51         O  0.31688498  0.70732299  0.12944532    -0.81100
O52         O  0.30786899  0.77376040  0.07711489    -0.80900
O53         O  0.35365896  0.79569760  0.08243824    -0.79500
Zn54       Zn  0.36991479  0.75630133  0.13678294     1.55700
O55         O  0.29834376  0.75539416  0.12655138    -0.80900
Cd56       Cd  0.33881319  0.76821876  0.07087259     1.59700
Cd57       Cd  0.35734331  0.72173191  0.07592543     1.59600
O58         O  0.34410809  0.76004894  0.01595783    -0.80900
O59         O  0.34783358  0.74609892  0.10581191    -1.91400
Cd60       Cd  0.32421280  0.73802293  0.13832109     1.59900
O61         O  0.35416477  0.72709977  0.01928405    -0.80900
O62         O  0.33136521  0.74134657  0.19411899    -0.79500
C63         C  0.40144006  0.72645378  0.10411681     0.83000
C64         C  0.36729323  0.80026084  0.10626336     0.82600
O65         O  0.36380654  0.75198522  0.19156599    -0.78500
C66         C  0.29433869  0.76818438  0.10065699     0.83500
O67         O  0.39623155  0.74184779  0.12405478    -0.78600
C68         C  0.34944511  0.74312954  0.50060119     0.83600
C69         C  0.32460242  0.69280944  0.10993337     0.83900
O70         O  0.34018978  0.69572684  0.08909940    -0.81000
C71         C  0.58449373  0.69451318  0.14818759     0.80200
N72         N  0.58541145  0.68978965  0.18479273    -0.78100
C73         C  0.60357273  0.68681796  0.20177837     0.82600
N74         N  0.62108198  0.68832978  0.18183878    -0.78100
C75         C  0.62055997  0.69296021  0.14510517     0.82700
N76         N  0.60219690  0.69647837  0.12827942    -0.79800
C77         C  0.62263054  0.68691956  0.29794893     0.80200
N78         N  0.60471605  0.68696688  0.31756732    -0.78100
C79         C  0.58656935  0.68502021  0.29930510     0.82600
N80         N  0.58651518  0.68406323  0.26173580    -0.78100
C81         C  0.60421121  0.68462078  0.24216489     0.82700
N82         N  0.62223971  0.68584071  0.26036957    -0.79800
O83         O  0.83176680  0.79359459  0.31680716    -0.78500
C84         C  0.85537632  0.75016718  0.23507571     0.82500
O85         O  0.81123796  0.72943457  0.36501644    -0.79600
O86         O  0.87874934  0.70649186  0.32243060    -0.81100
O87         O  0.89992321  0.77568232  0.35595553    -0.80900
O88         O  0.85597137  0.80196947  0.35741277    -0.79500
Zn89       Zn  0.83454734  0.76333991  0.30731643     1.55700
O90         O  0.90581581  0.75052270  0.31508565    -0.80900
Cd91       Cd  0.86918845  0.77365734  0.36904328     1.59700
Cd92       Cd  0.84238019  0.73164819  0.37380829     1.59600
O93         O  0.86646363  0.76814618  0.42599383    -0.80900
O94         O  0.85563463  0.75161886  0.33891168    -1.91400
Cd95       Cd  0.87689853  0.73740490  0.30748003     1.59900
O96         O  0.84626030  0.74036699  0.42864077    -0.80900
O97         O  0.86947971  0.73990922  0.25121334    -0.79500
C98         C  0.79957434  0.73819679  0.34157247     0.83000
C99         C  0.84104940  0.80689410  0.33651257     0.82600
O100        O  0.84167060  0.75993621  0.25315740    -0.78500
C101        C  0.91205637  0.76560673  0.33486917     0.83500
O102        O  0.80662689  0.75091104  0.31770409    -0.78600
C103        C  0.85640362  0.75467185  0.44439241     0.83600
C104        C  0.86895591  0.69535510  0.34573502     0.83900
O105        O  0.85483838  0.70267025  0.36642891    -0.81000
O106        O  0.83970350  0.75922850  0.00213390    -0.78500
C107        C  0.80113458  0.73232703  0.09016509     0.82500
O108        O  0.84350910  0.80281318  0.11379103    -0.79600
O109        O  0.85084210  0.73488127  0.17605981    -0.81100
O110        O  0.88451912  0.71460567  0.06481283    -0.80900
O111        O  0.87298347  0.75133675  0.00233506    -0.79500
Zn112      Zn  0.83167944  0.76284721  0.05638259     1.55700
O113        O  0.86020542  0.70397446  0.10395373    -0.80900
Cd114      Cd  0.87837874  0.74606104  0.05850939     1.59700
Cd115      Cd  0.86157624  0.77718503  0.12348638     1.59600
O116        O  0.90399401  0.76259699  0.07490861    -0.80900
O117        O  0.85394983  0.75431501  0.08892239    -1.91400
Cd118      Cd  0.84512809  0.73037609  0.11990945     1.59900
O119        O  0.89204036  0.78533842  0.11618639    -0.80900
O120        O  0.81424219  0.72511190  0.11285670    -0.79500
C121        C  0.82981640  0.80650947  0.08958777     0.83000
C122        C  0.85643751  0.75536257  0.48510256     0.82600
O123        O  0.80591105  0.74625539  0.06663073    -0.78500
C124        C  0.87553586  0.70029270  0.08305222     0.83500
O125        O  0.82444897  0.79288527  0.06594748    -0.78600
C126        C  0.90670406  0.77768811  0.09714536     0.83600
C127        C  0.85489784  0.75117227  0.19443627     0.83900
O128        O  0.85813932  0.76852687  0.17871570    -0.81000
C129        C  0.92242071  0.52083118  0.14566634     0.80200
N130        N  0.92512498  0.52061560  0.18298499    -0.78100
C131        C  0.92954276  0.50278606  0.20093544     0.82600
N132        N  0.93154551  0.48508814  0.18137567    -0.78100
C133        C  0.92885315  0.48493097  0.14410556     0.82700
N134        N  0.92389614  0.50281271  0.12617865    -0.79800
C135        C  0.93234342  0.48323159  0.29717284     0.80200
N136        N  0.92743527  0.50054490  0.31679472    -0.78100
C137        C  0.92405646  0.51865195  0.29861955     0.82600
N138        N  0.92525182  0.51933777  0.26111803    -0.78100
C139        C  0.93018733  0.50225583  0.24149898     0.82700
N140        N  0.93361731  0.48423643  0.25957816    -0.79800
C141        C  0.79275742  0.02252063  0.39725630     0.80200
N142        N  0.78777493  0.02267619  0.43388250    -0.78100
C143        C  0.78629591  0.00472463  0.45310478     0.82600
N144        N  0.78979015  0.98657926  0.43552589    -0.78100
C145        C  0.79490535  0.98618398  0.39903476     0.82700
N146        N  0.79666943  0.00424640  0.38002295    -0.79800
C147        C  0.78367079  0.98667125  0.05005454     0.80200
N148        N  0.78286673  0.98690262  0.01245495    -0.78100
C149        C  0.78382709  0.00494473  0.99350666     0.82600
N150        N  0.78541969  0.02292977  0.01238375    -0.78100
C151        C  0.78633013  0.02300206  0.04999320     0.82700
N152        N  0.78591520  0.00476147  0.06888698    -0.79800
O153        O  0.89697506  0.29083138  0.36210598    -0.78500
C154        C  0.86970928  0.24691025  0.44281624     0.82500
O155        O  0.91400906  0.22334848  0.31723775    -0.79600
O156        O  0.84437898  0.20631429  0.35384337    -0.81100
O157        O  0.82916087  0.27638252  0.31995609    -0.80900
O158        O  0.87560358  0.29852285  0.31616660    -0.79500
Zn159      Zn  0.89210252  0.26034055  0.37195455     1.55700
O160        O  0.82096259  0.25222348  0.36143764    -0.80900
Cd161      Cd  0.85961865  0.27159126  0.30769190     1.59700
Cd162      Cd  0.88342523  0.22800280  0.30458721     1.59600
O163        O  0.86160265  0.26517361  0.25158151    -0.80900
O164        O  0.87126818  0.24915761  0.33893412    -1.91400
Cd165      Cd  0.84863292  0.23667824  0.36930832     1.59900
O166        O  0.88128207  0.23702588  0.24892479    -0.80900
O167        O  0.85552042  0.23750102  0.42553432    -0.79500
C168        C  0.92570683  0.23188536  0.34096081     0.83000
C169        C  0.88975751  0.30359115  0.33858318     0.82600
O170        O  0.88394166  0.25661680  0.42591078    -0.78500
C171        C  0.81606734  0.26749252  0.34085529     0.83500
O172        O  0.91913024  0.24579978  0.36307975    -0.78600
C173        C  0.87134723  0.25155798  0.23316394     0.83600
C174        C  0.85309203  0.19419953  0.33076535     0.83900
O175        O  0.86807517  0.20007476  0.31051376    -0.81000
O176        O  0.90688636  0.22078597  0.06746491    -0.78500
C177        C  0.84456260  0.19909499  0.09509641     0.82500
O178        O  0.86386839  0.26477313  0.99833619    -0.79600
O179        O  0.81908611  0.26134904  0.11047148    -0.81100
O180        O  0.88629736  0.25785704  0.17409154    -0.80900
O181        O  0.91801442  0.24569272  0.10494442    -0.79500
Zn182      Zn  0.87676545  0.22681942  0.05839988     1.55700
O183        O  0.85364123  0.24770314  0.17681508    -0.80900
Cd184      Cd  0.89163132  0.26206879  0.11726472     1.59700
Cd185      Cd  0.85814835  0.27264950  0.05257211     1.59600
O186        O  0.89648709  0.29339797  0.10511741    -0.80900
O187        O  0.86826317  0.25098801  0.08722835    -1.91400
Cd188      Cd  0.84524377  0.24422438  0.12175211     1.59900
O189        O  0.87289122  0.30011464  0.06220371    -0.80900
O190        O  0.83725083  0.21374907  0.11466809    -0.79500
C191        C  0.86898175  0.24774236  0.48338806     0.83000
C192        C  0.92124916  0.22952279  0.08555971     0.82600
O193        O  0.85981274  0.20178883  0.07334679    -0.78500
C194        C  0.87045798  0.25239228  0.19249785     0.83500
O195        O  0.87335564  0.23175719  0.00256195    -0.78600
C196        C  0.88760818  0.30587756  0.08282052     0.83600
C197        C  0.81401360  0.27256640  0.08288736     0.83900
O198        O  0.82684903  0.27742263  0.05764386    -0.81000
C199        C  0.60050989  0.31175680  0.14104254     0.80200
N200        N  0.60018759  0.31405015  0.17848656    -0.78100
C201        C  0.61775858  0.31693225  0.19755298     0.82600
N202        N  0.63572754  0.31794545  0.17893682    -0.78100
C203        C  0.63640423  0.31589371  0.14150037     0.82700
N204        N  0.61875843  0.31228904  0.12244133    -0.79800
C205        C  0.63536720  0.31151559  0.29425595     0.80200
N206        N  0.61722752  0.31068506  0.31298137    -0.78100
C207        C  0.59932749  0.31349021  0.29433518     0.82600
N208        N  0.59968057  0.31620204  0.25699911    -0.78100
C209        C  0.61763282  0.31659124  0.23819747     0.82700
N210        N  0.63541601  0.31444551  0.25696703    -0.79800
C211        C  0.42993200  0.01149865  0.41329141     0.80200
N212        N  0.42795461  0.99327748  0.39470489    -0.78100
C213        C  0.42981333  0.97501572  0.41318929     0.82600
N214        N  0.43293886  0.97513072  0.45035453    -0.78100
C215        C  0.43439410  0.99316557  0.46917629     0.82700
N216        N  0.43290950  0.01127040  0.45055081    -0.79800
C217        C  0.43002847  0.97385639  0.06500527     0.80200
N218        N  0.43364375  0.97467963  0.02797316    -0.78100
C219        C  0.43405233  0.99295411  0.00979973     0.82600
N220        N  0.43102199  0.01068589  0.02896582    -0.78100
C221        C  0.42731268  0.01023235  0.06605586     0.82700
N222        N  0.42636411  0.99170169  0.08406357    -0.79800
C223        C  0.10027796  0.17674406  0.39957466     0.80200
N224        N  0.11826374  0.18019237  0.38126216    -0.78100
C225        C  0.13632271  0.17915574  0.39999185     0.82600
N226        N  0.13614303  0.17557814  0.43707082    -0.78100
C227        C  0.11829253  0.17279935  0.45557205     0.82700
N228        N  0.10042947  0.17328644  0.43670401    -0.79800
C229        C  0.13622650  0.17628873  0.05219371     0.80200
N230        N  0.11822403  0.17900750  0.07088016    -0.78100
C231        C  0.10016125  0.17773572  0.05215756     0.82600
N232        N  0.10030730  0.17467159  0.01492775    -0.78100
C233        C  0.11817099  0.17264883  0.99618265     0.82700
N234        N  0.13603771  0.17333103  0.01495062    -0.79800
O235        O  0.41803389  0.24842221  0.37971331    -0.78500
C236        C  0.36691310  0.24471224  0.45679713     0.82500
O237        O  0.37536533  0.19621008  0.32614766    -0.79600
O238        O  0.31963846  0.24266120  0.36919846    -0.81100
O239        O  0.36908077  0.29621873  0.33343999    -0.80900
O240        O  0.41340245  0.27102937  0.33398547    -0.79500
Zn241      Zn  0.39079626  0.23392168  0.38599119     1.55700
O242        O  0.34413527  0.28860751  0.37357879    -0.80900
Cd243      Cd  0.38277430  0.26799804  0.32159532     1.59700
Cd244      Cd  0.35962287  0.22365033  0.31892870     1.59600
O245        O  0.38017459  0.26184387  0.26491970    -0.80900
O246        O  0.37032870  0.24559459  0.35277036    -1.91400
Cd247      Cd  0.34706890  0.25715372  0.38266435     1.59900
O248        O  0.36286673  0.23209486  0.26388659    -0.80900
O249        O  0.35242613  0.25343467  0.43910640    -0.79500
C250        C  0.38938762  0.19130217  0.34897896     0.83000
C251        C  0.42485093  0.26236076  0.35793740     0.82600
O252        O  0.38204874  0.23626551  0.44021901    -0.78500
C253        C  0.35417307  0.30167628  0.35424725     0.83500
O254        O  0.39600544  0.20409858  0.37297568    -0.78600
C255        C  0.37154085  0.24714467  0.24735962     0.83600
C256        C  0.31526062  0.22744591  0.34812952     0.83900
O257        O  0.32884340  0.21838272  0.32851089    -0.81000
O258        O  0.38636556  0.24238871  0.18769426    -0.78500
C259        C  0.38532848  0.19196313  0.10822280     0.82500
O260        O  0.40714462  0.27568593  0.07541931    -0.79600
O261        O  0.36107260  0.22897125  0.01537758    -0.81100
O262        O  0.31880438  0.24145859  0.12833759    -0.80900
O263        O  0.35389848  0.25277491  0.19170175    -0.79500
Zn264      Zn  0.39095650  0.23714966  0.13221649     1.55700
O265        O  0.32496524  0.21973522  0.08173920    -0.80900
Cd266      Cd  0.34598849  0.25663224  0.13694838     1.59700
Cd267      Cd  0.37609398  0.26984258  0.06906477     1.59600
O268        O  0.34041748  0.28754204  0.12882418    -0.80900
O269        O  0.36775722  0.24657870  0.10266074    -1.91400
Cd270      Cd  0.35628851  0.22344606  0.07195316     1.59900
O271        O  0.35980631  0.29685117  0.08069121    -0.80900
O272        O  0.37032403  0.19590426  0.08679515    -0.79500
C273        C  0.42110637  0.26664871  0.09406508     0.83000
C274        C  0.37072439  0.24769461  0.20677356     0.82600
O275        O  0.39459334  0.20622651  0.12591015    -0.78500
C276        C  0.31279113  0.22776336  0.10551679     0.83500
O277        O  0.41703454  0.25159123  0.11577257    -0.78600
C278        C  0.34656703  0.30108952  0.10569952     0.83600
C279        C  0.36649653  0.24513720  0.49753256     0.83900
O280        O  0.37163484  0.26183965  0.01381382    -0.81000
C281        C  0.15621645  0.17718771  0.07088589    -0.03200
C282        C  0.17167246  0.16343618  0.05975086    -0.05800
C283        C  0.19177800  0.16619107  0.07152652    -0.20900
C284        C  0.19700474  0.18303262  0.09400127     0.24800
C285        C  0.18126452  0.19610568  0.10718334    -0.18500
C286        C  0.16096665  0.19312303  0.09575918    -0.08400
C287        C  0.21912863  0.18688444  0.10070323    -0.18700
C288        C  0.22689448  0.20557784  0.10893840    -0.23500
C289        C  0.24921542  0.20991897  0.10916068     0.26900
C290        C  0.25655745  0.22582399  0.13181627    -0.20300
C291        C  0.27722134  0.23133747  0.13096697    -0.09900
C292        C  0.29101634  0.22127690  0.10690928    -0.10500
C293        C  0.28367629  0.20531293  0.08414768    -0.03400
C294        C  0.26298527  0.19967262  0.08525109    -0.18500
H295        H  0.16830569  0.15094731  0.04072567     0.10600
H296        H  0.20348850  0.15573758  0.06135389     0.10600
H297        H  0.18454401  0.20886912  0.12555374     0.10300
H298        H  0.14925124  0.20391856  0.10464046     0.11400
H299        H  0.22959651  0.17414528  0.09552387     0.11500
H300        H  0.21673953  0.21845981  0.11470120     0.13400
H301        H  0.24622904  0.23408642  0.15014283     0.09900
H302        H  0.28230855  0.24373596  0.14885583     0.12000
H303        H  0.29385828  0.19733058  0.06518729     0.08600
H304        H  0.25773132  0.18777437  0.06649390     0.11400
C305        C  0.29386550  0.21991367  0.34649119    -0.03200
C306        C  0.28961226  0.19997528  0.33308967    -0.05800
C307        C  0.26957308  0.19242098  0.33302973    -0.20900
C308        C  0.25329010  0.20475025  0.34554405     0.24800
C309        C  0.25742987  0.22489318  0.35818481    -0.18500
C310        C  0.27754458  0.23234867  0.35880798    -0.08400
C311        C  0.23261373  0.19541129  0.34869463    -0.18700
C312        C  0.21512411  0.20641657  0.34767235    -0.23500
C313        C  0.19492411  0.19719971  0.35699262     0.26900
C314        C  0.17696008  0.20565358  0.34194009    -0.20300
C315        C  0.15766828  0.19877163  0.35388281    -0.09900
C316        C  0.15611311  0.18371187  0.38180450    -0.10500
C317        C  0.17407639  0.17480082  0.39591368    -0.03400
C318        C  0.19325528  0.18139871  0.38361083    -0.18500
H319        H  0.30185136  0.18998015  0.32354420     0.10600
H320        H  0.26679960  0.17677693  0.32357911     0.10600
H321        H  0.24530443  0.23462138  0.36894699     0.10300
H322        H  0.28034265  0.24778700  0.36922982     0.11400
H323        H  0.23184161  0.17875267  0.35228823     0.11500
H324        H  0.21558487  0.22271243  0.34044354     0.13400
H325        H  0.17786957  0.21796766  0.32163925     0.09900
H326        H  0.14404627  0.20605080  0.34289006     0.12000
H327        H  0.17330105  0.16321113  0.41757049     0.08600
H328        H  0.20671337  0.17488498  0.39655311     0.11400
C329        C  0.42312973  0.02994286  0.08523962    -0.03200
C330        C  0.40677425  0.03192282  0.11037131    -0.05800
C331        C  0.40070036  0.05155673  0.12282226    -0.20900
C332        C  0.41116689  0.06940587  0.11102087     0.24800
C333        C  0.42818159  0.06714472  0.08729654    -0.18500
C334        C  0.43400394  0.04766605  0.07451030    -0.08400
C335        C  0.40269062  0.09020775  0.11987953    -0.18700
C336        C  0.41414878  0.10753866  0.11897854    -0.23500
C337        C  0.40561022  0.12885675  0.11959802     0.26900
C338        C  0.41873641  0.14535592  0.12807943    -0.20300
C339        C  0.41204120  0.16582138  0.12506931    -0.09900
C340        C  0.39213812  0.17026490  0.11279194    -0.10500
C341        C  0.37888292  0.15378398  0.10463890    -0.03400
C342        C  0.38549733  0.13328745  0.10811540    -0.18500
H343        H  0.39797531  0.01848170  0.11860305     0.10600
H344        H  0.38740741  0.05287625  0.14073095     0.10600
H345        H  0.43632863  0.08043413  0.07660447     0.10300
H346        H  0.44659780  0.04652204  0.05496486     0.11400
H347        H  0.38642371  0.09125001  0.12589170     0.11500
H348        H  0.43067399  0.10618373  0.11662941     0.13400
H349        H  0.43437320  0.14240399  0.13650574     0.09900
H350        H  0.42263110  0.17818607  0.13142790     0.12000
H351        H  0.36341946  0.15673987  0.09526580     0.08600
H352        H  0.37506714  0.12107182  0.10035527     0.11400
C353        C  0.42722410  0.03157225  0.39430881    -0.03200
C354        C  0.41612085  0.03312249  0.36114034    -0.05800
C355        C  0.41160338  0.05255106  0.34603903    -0.20900
C356        C  0.41848408  0.07068411  0.36336336     0.24800
C357        C  0.43011108  0.06902206  0.39595867    -0.18500
C358        C  0.43443630  0.04971365  0.41116226    -0.08400
C359        C  0.41165132  0.09112713  0.34933886    -0.18700
C360        C  0.42252946  0.10851882  0.35503533    -0.23500
C361        C  0.41445259  0.12977359  0.34953519     0.26900
C362        C  0.42443260  0.14601417  0.36781230    -0.20300
C363        C  0.41642584  0.16599248  0.36714646    -0.09900
C364        C  0.39831789  0.17028878  0.34776910    -0.10500
C365        C  0.38884065  0.15430528  0.32779146    -0.03400
C366        C  0.39679058  0.13420375  0.32869125    -0.18500
H367        H  0.41021000  0.01940566  0.34772124     0.10600
H368        H  0.40239907  0.05345383  0.32118848     0.10600
H369        H  0.43509534  0.08260072  0.41090280     0.10300
H370        H  0.44300193  0.04904047  0.43678063     0.11400
H371        H  0.39681848  0.09176010  0.33605988     0.11500
H372        H  0.43761230  0.10725395  0.36737061     0.13400
H373        H  0.43815762  0.14311777  0.38377187     0.09900
H374        H  0.42431425  0.17803494  0.38226647     0.12000
H375        H  0.37501696  0.15722208  0.31214823     0.08600
H376        H  0.38893295  0.12230845  0.31329064     0.11400
C377        C  0.44661971  0.26858874  0.36005783    -0.03200
C378        C  0.46086831  0.25680802  0.38019376    -0.05800
C379        C  0.48158451  0.26237240  0.38054376    -0.20900
C380        C  0.48839308  0.27996467  0.36133667     0.24800
C381        C  0.47407237  0.29175191  0.34130274    -0.18500
C382        C  0.45346689  0.28615286  0.34079600    -0.08400
C383        C  0.51064669  0.28468999  0.35997160    -0.18700
C384        C  0.51789553  0.30369202  0.35229291    -0.23500
C385        C  0.53944116  0.30751384  0.34163491     0.26900
C386        C  0.54323235  0.32176027  0.31318909    -0.20300
C387        C  0.56291767  0.32419395  0.29890170    -0.09900
C388        C  0.57933405  0.31278857  0.31340402    -0.10500
C389        C  0.57586467  0.29954057  0.34364772    -0.03400
C390        C  0.55596300  0.29674380  0.35748151    -0.18500
H391        H  0.45609107  0.24307452  0.39505767     0.10600
H392        H  0.49235045  0.25283760  0.39564780     0.10600
H393        H  0.47872123  0.30490951  0.32481764     0.10300
H394        H  0.44292403  0.29548739  0.32481695     0.11400
H395        H  0.52125386  0.27187831  0.36317491     0.11500
H396        H  0.50735324  0.31654399  0.34928238     0.13400
H397        H  0.53074886  0.33031043  0.30075348     0.09900
H398        H  0.56522596  0.33466858  0.27580669     0.12000
H399        H  0.58831356  0.29062768  0.35532005     0.08600
H400        H  0.55347190  0.28598030  0.38004315     0.11400
C401        C  0.58096352  0.30774418  0.12193816    -0.10400
C402        C  0.57922475  0.29192910  0.09552654    -0.05800
C403        C  0.55984703  0.28564261  0.08320630    -0.20900
C404        C  0.54199535  0.29540800  0.09637704     0.24800
C405        C  0.54395769  0.31199415  0.12131724    -0.18500
C406        C  0.56320544  0.31798216  0.13405794    -0.08400
C407        C  0.52156864  0.28655187  0.08745984    -0.18700
C408        C  0.50418164  0.29778139  0.08847648    -0.23500
C409        C  0.48333002  0.28863591  0.08665241     0.26900
C410        C  0.46695828  0.30111318  0.07514077    -0.20300
C411        C  0.44682270  0.29379464  0.07669724    -0.09900
C412        C  0.44255821  0.27394904  0.09060528    -0.10500
C413        C  0.45895790  0.26135283  0.10183906    -0.03400
C414        C  0.47914213  0.26856705  0.09974276    -0.18500
H415        H  0.59269406  0.28361890  0.08619607     0.10600
H416        H  0.55874477  0.27270027  0.06428212     0.10600
H417        H  0.53062580  0.31958116  0.13290416     0.10300
H418        H  0.56416841  0.33014616  0.15461338     0.11400
H419        H  0.52083565  0.27018349  0.08093778     0.11500
H420        H  0.50514109  0.31446169  0.09136095     0.13400
H421        H  0.46974020  0.31670833  0.06538150     0.09900
H422        H  0.43453259  0.30390997  0.06796060     0.12000
H423        H  0.45617103  0.24597415  0.11261864     0.08600
H424        H  0.49130039  0.25870282  0.10979944     0.11400
C425        C  0.79257447  0.27984289  0.07988162    -0.03200
C426        C  0.78399572  0.28451484  0.04512898    -0.05800
C427        C  0.76338036  0.29035112  0.04229525    -0.20900
C428        C  0.75118748  0.29222297  0.07421368     0.24800
C429        C  0.75984066  0.28771811  0.10895740    -0.18500
C430        C  0.78025169  0.28147504  0.11171569    -0.08400
C431        C  0.72922168  0.29793153  0.07117351    -0.18700
C432        C  0.72035286  0.31029112  0.09655895    -0.23500
C433        C  0.69797990  0.31401770  0.10066093     0.26900
C434        C  0.69183536  0.32883165  0.12678583    -0.20300
C435        C  0.67146320  0.33027026  0.13795275    -0.09900
C436        C  0.65660772  0.31704296  0.12306205    -0.10500
C437        C  0.66225645  0.30332527  0.09463198    -0.03400
C438        C  0.68287153  0.30170740  0.08359692    -0.18500
H439        H  0.79309109  0.28317678  0.02007168     0.10600
H440        H  0.75698119  0.29353013  0.01522899     0.10600
H441        H  0.75067353  0.28851286  0.13399849     0.10300
H442        H  0.78639761  0.27790490  0.13881588     0.11400
H443        H  0.72047885  0.29176402  0.04820080     0.11500
H444        H  0.73016671  0.31747175  0.11715177     0.13400
H445        H  0.70304199  0.33859482  0.14023828     0.09900
H446        H  0.66747062  0.34113354  0.15967777     0.12000
H447        H  0.65106383  0.29289012  0.08289928     0.08600
H448        H  0.68696437  0.28999474  0.06352007     0.11400
C449        C  0.94223138  0.22072304  0.08409024    -0.03200
C450        C  0.94700911  0.20456650  0.05952423    -0.05800
C451        C  0.96685252  0.19649830  0.05785966    -0.20900
C452        C  0.98238024  0.20420691  0.08087290     0.24800
C453        C  0.97760354  0.22036677  0.10556397    -0.18500
C454        C  0.95775946  0.22850193  0.10711288    -0.08400
C455        C  0.00341206  0.19562842  0.07653578    -0.18700
C456        C  0.01894959  0.19859272  0.10055025    -0.23500
C457        C  0.04007061  0.19107378  0.09281007     0.26900
C458        C  0.05691945  0.20225687  0.10635238    -0.20300
C459        C  0.07690852  0.19708803  0.09538017    -0.09900
C460        C  0.08023053  0.18065799  0.07070418    -0.10500
C461        C  0.06355247  0.16856479  0.05945841    -0.03400
C462        C  0.04370903  0.17353534  0.07072217    -0.18500
H463        H  0.93546444  0.19826395  0.04127995     0.10600
H464        H  0.97010178  0.18418714  0.03834006     0.10600
H465        H  0.98910779  0.22717219  0.12317788     0.10300
H466        H  0.95461711  0.24099114  0.12629470     0.11400
H467        H  0.00624517  0.18680195  0.05145383     0.11500
H468        H  0.01666084  0.20778350  0.12532951     0.13400
H469        H  0.05453474  0.21565388  0.12385309     0.09900
H470        H  0.08956188  0.20668063  0.10424213     0.12000
H471        H  0.06582838  0.15562183  0.04083167     0.08600
H472        H  0.03125013  0.16390510  0.06124613     0.11400
C473        C  0.79456290  0.27494673  0.34002628    -0.03200
C474        C  0.78914847  0.29099732  0.31569975    -0.05800
C475        C  0.76883252  0.29724474  0.31232396    -0.20900
C476        C  0.75331555  0.28783216  0.33333230     0.24800
C477        C  0.75864424  0.27208299  0.35849369    -0.18500
C478        C  0.77911841  0.26569548  0.36175232    -0.08400
C479        C  0.73189184  0.29432116  0.32593888    -0.18700
C480        C  0.71568212  0.29111327  0.34852366    -0.23500
C481        C  0.69471020  0.29821157  0.33836874     0.26900
C482        C  0.67745442  0.28765369  0.35212886    -0.20300
C483        C  0.65774434  0.29274968  0.33967404    -0.09900
C484        C  0.65511131  0.30839669  0.31311229    -0.10500
C485        C  0.67216063  0.31981596  0.30132264    -0.03400
C486        C  0.69167029  0.31504214  0.31422132    -0.18500
H487        H  0.80056213  0.29851753  0.29852444     0.10600
H488        H  0.76519077  0.30939586  0.29272509     0.10600
H489        H  0.74709013  0.26421677  0.37474493     0.10300
H490        H  0.78277731  0.25324190  0.38068352     0.11400
H491        H  0.72951956  0.30225293  0.29980295     0.11500
H492        H  0.71754176  0.28258460  0.37419083     0.13400
H493        H  0.67930732  0.27489095  0.37127976     0.09900
H494        H  0.64476301  0.28374223  0.34916144     0.12000
H495        H  0.67042765  0.33223182  0.28139187     0.08600
H496        H  0.70432229  0.32442383  0.30461992     0.11400
C497        C  0.94758203  0.22583555  0.34234960    -0.03200
C498        C  0.96184280  0.23839286  0.36076858    -0.05800
C499        C  0.98261158  0.23320655  0.36090974    -0.20900
C500        C  0.98955098  0.21515744  0.34336359     0.24800
C501        C  0.97533609  0.20253476  0.32490300    -0.18500
C502        C  0.95456436  0.20787572  0.32430798    -0.08400
C503        C  0.01167679  0.21002465  0.34510044    -0.18700
C504        C  0.01869606  0.19047545  0.34611956    -0.23500
C505        C  0.04029253  0.18566157  0.35516769     0.26900
C506        C  0.04435666  0.16895591  0.37876171    -0.20300
C507        C  0.06414558  0.16553763  0.39186769    -0.09900
C508        C  0.08036280  0.17839100  0.38071507    -0.10500
C509        C  0.07662932  0.19421231  0.35496728    -0.03400
C510        C  0.05667387  0.19795986  0.34251226    -0.18500
H511        H  0.95700512  0.25241927  0.37465838     0.10600
H512        H  0.99327825  0.24320573  0.37521326     0.10600
H513        H  0.98025104  0.18873165  0.31043979     0.10300
H514        H  0.94397137  0.19793988  0.30971455     0.11400
H515        H  0.02229362  0.22267006  0.34985078     0.11500
H516        H  0.00791011  0.17771075  0.34544823     0.13400
H517        H  0.03200480  0.15919746  0.38863614     0.09900
H518        H  0.06669650  0.15318643  0.41162303     0.12000
H519        H  0.08890008  0.20435836  0.34611230     0.08600
H520        H  0.05399264  0.21070098  0.32366301     0.11400
C521        C  0.78983247  0.04281177  0.06903586    -0.03200
C522        C  0.80319353  0.04409109  0.09931297    -0.05800
C523        C  0.80983934  0.06341081  0.11194350    -0.20900
C524        C  0.80285987  0.08166287  0.09506990     0.24800
C525        C  0.78838968  0.08029274  0.06641636    -0.18500
C526        C  0.78202167  0.06105901  0.05350013    -0.08400
C527        C  0.81287784  0.10158293  0.10407935    -0.18700
C528        C  0.80381645  0.11997935  0.09847110    -0.23500
C529        C  0.81507728  0.13979259  0.10022411     0.26900
C530        C  0.80448674  0.15776139  0.11039112    -0.20300
C531        C  0.81426515  0.17694066  0.10949989    -0.09900
C532        C  0.83470144  0.17858565  0.09743877    -0.10500
C533        C  0.84531097  0.16059966  0.08706198    -0.03400
C534        C  0.83562859  0.14133831  0.08865004    -0.18500
H535        H  0.80956143  0.03021114  0.11150963     0.10600
H536        H  0.82109028  0.06409264  0.13388759     0.10600
H537        H  0.78299715  0.09394184  0.05211702     0.10300
H538        H  0.77169882  0.06043980  0.03008889     0.11400
H539        H  0.82851009  0.10107214  0.11422950     0.11500
H540        H  0.78761392  0.12064574  0.09192259     0.13400
H541        H  0.78856785  0.15695949  0.11883731     0.09900
H542        H  0.80564586  0.19057147  0.11736158     0.12000
H543        H  0.86104687  0.16143587  0.07758889     0.08600
H544        H  0.84401435  0.12780539  0.07957502     0.11400
C545        C  0.79503504  0.04224893  0.37728890    -0.03200
C546        C  0.78314048  0.05931864  0.38788319    -0.05800
C547        C  0.78653942  0.07862776  0.37188728    -0.20900
C548        C  0.80222991  0.08138514  0.34571465     0.24800
C549        C  0.81355401  0.06409847  0.33372621    -0.18500
C550        C  0.80985814  0.04461349  0.34927270    -0.08400
C551        C  0.80704586  0.10276677  0.33396059    -0.18700
C552        C  0.82613992  0.10913169  0.32570833    -0.23500
C553        C  0.83181048  0.13132406  0.32464718     0.26900
C554        C  0.84886880  0.13763052  0.30377543    -0.20300
C555        C  0.85561023  0.15815411  0.30506185    -0.09900
C556        C  0.84556703  0.17267738  0.32776396    -0.10500
C557        C  0.82842575  0.16633237  0.34848609    -0.03400
C558        C  0.82166223  0.14591926  0.34705869    -0.18500
H559        H  0.77144758  0.05781064  0.40910085     0.10600
H560        H  0.77751733  0.09167850  0.38133952     0.10600
H561        H  0.82541197  0.06561590  0.31286969     0.10300
H562        H  0.81915736  0.03161128  0.34054588     0.11400
H563        H  0.79490018  0.11413445  0.33676788     0.11500
H564        H  0.83839752  0.09794276  0.32236300     0.13400
H565        H  0.85711651  0.12659658  0.28675671     0.09900
H566        H  0.86890013  0.16253676  0.28882979     0.12000
H567        H  0.82039456  0.17705911  0.36643647     0.08600
H568        H  0.80897486  0.14151651  0.36473768     0.11400
C569        C  0.93402935  0.46284234  0.31538818    -0.03200
C570        C  0.92325430  0.45845093  0.34828054    -0.05800
C571        C  0.92156830  0.43802359  0.36091782    -0.20900
C572        C  0.93060153  0.42178880  0.34083942     0.24800
C573        C  0.94303502  0.42653077  0.31008426    -0.18500
C574        C  0.94454863  0.44679973  0.29730592    -0.08400
C575        C  0.92537545  0.40005168  0.35017293    -0.18700
C576        C  0.92317341  0.38580696  0.32326575    -0.23500
C577        C  0.91480480  0.36477603  0.32902938     0.26900
C578        C  0.90531127  0.35516051  0.29883872    -0.20300
C579        C  0.89698501  0.33545440  0.30235982    -0.09900
C580        C  0.89832689  0.32466527  0.33601732    -0.10500
C581        C  0.90821164  0.33403019  0.36622043    -0.03400
C582        C  0.91627455  0.35404325  0.36286698    -0.18500
H583        H  0.91505522  0.47054543  0.36285663     0.10600
H584        H  0.91215170  0.43476847  0.38501219     0.10600
H585        H  0.95098493  0.41449013  0.29495118     0.10300
H586        H  0.95333705  0.44980024  0.27234216     0.11400
H587        H  0.92087237  0.39643947  0.37844369     0.11500
H588        H  0.92570917  0.39038456  0.29463822     0.13400
H589        H  0.90413331  0.36303059  0.27240473     0.09900
H590        H  0.88973340  0.32852386  0.27844706     0.12000
H591        H  0.90955930  0.32595619  0.39240585     0.08600
H592        H  0.92389708  0.36087719  0.38644210     0.11400
C593        C  0.89421110  0.32778914  0.08056129    -0.03200
C594        C  0.88230794  0.34216098  0.06080358    -0.05800
C595        C  0.88770645  0.36302102  0.05980399    -0.20900
C596        C  0.90523227  0.37010113  0.07812600     0.24800
C597        C  0.91754828  0.35564566  0.09706740    -0.18500
C598        C  0.91206227  0.33470743  0.09823596    -0.08400
C599        C  0.90878602  0.39281319  0.07980636    -0.18700
C600        C  0.92666690  0.40155657  0.08956620    -0.23500
C601        C  0.92867759  0.42391873  0.09835032     0.26900
C602        C  0.94344659  0.42976646  0.12437711    -0.20300
C603        C  0.94415059  0.44999024  0.13762682    -0.09900
C604        C  0.93035727  0.46495453  0.12459146    -0.10500
C605        C  0.91659184  0.45963378  0.09641729    -0.03400
C606        C  0.91568134  0.43921859  0.08344568    -0.18500
H607        H  0.86847140  0.33740468  0.04675709     0.10600
H608        H  0.87787804  0.37376928  0.04521160     0.10600
H609        H  0.93093724  0.36042136  0.11231061     0.10300
H610        H  0.92160806  0.32401063  0.11351635     0.11400
H611        H  0.89561193  0.40261625  0.07469810     0.11500
H612        H  0.93987568  0.39184862  0.09483690     0.13400
H613        H  0.95378413  0.41839536  0.13599032     0.09900
H614        H  0.95504504  0.45377425  0.15915308     0.12000
H615        H  0.90582236  0.47093147  0.08593318     0.08600
H616        H  0.90454621  0.43544171  0.06240355     0.11400
C617        C  0.91743515  0.54066146  0.12741192    -0.03200
C618        C  0.90383162  0.54162667  0.09741425    -0.05800
C619        C  0.89742664  0.56083946  0.08358694    -0.20900
C620        C  0.90498732  0.57930742  0.09878765     0.24800
C621        C  0.91909840  0.57823042  0.12802507    -0.18500
C622        C  0.92514915  0.55914160  0.14224674    -0.08400
C623        C  0.89654962  0.59949065  0.08655621    -0.18700
C624        C  0.90750612  0.61711502  0.08777990    -0.23500
C625        C  0.89836754  0.63790316  0.08249726     0.26900
C626        C  0.91079552  0.65424260  0.07015142    -0.20300
C627        C  0.90319008  0.67446929  0.06884752    -0.09900
C628        C  0.88313008  0.67877109  0.08075476    -0.10500
C629        C  0.87060378  0.66234420  0.09256963    -0.03400
C630        C  0.87809636  0.64212990  0.09332784    -0.18500
H631        H  0.89748693  0.52760218  0.08579418     0.10600
H632        H  0.88632467  0.56130407  0.06137319     0.10600
H633        H  0.92478627  0.59212031  0.14114100     0.10300
H634        H  0.93561357  0.55884266  0.16546644     0.11400
H635        H  0.88078655  0.59986310  0.07709040     0.11500
H636        H  0.92378982  0.61638727  0.09368645     0.13400
H637        H  0.92654602  0.65138736  0.06210853     0.09900
H638        H  0.91323219  0.68682006  0.05982816     0.12000
H639        H  0.85507280  0.66516205  0.10195015     0.08600
H640        H  0.86826988  0.63002308  0.10398718     0.11400
C641        C  0.78391594  0.96653244  0.06915128    -0.03200
C642        C  0.79715338  0.96280796  0.09897509    -0.05800
C643        C  0.80040299  0.94255200  0.11148843    -0.20900
C644        C  0.79041283  0.92584394  0.09444553     0.24800
C645        C  0.77566199  0.92996455  0.06711133    -0.18500
C646        C  0.77267300  0.95005825  0.05429676    -0.08400
C647        C  0.79653987  0.90434416  0.10395899    -0.18700
C648        C  0.79544386  0.88882126  0.07904101    -0.23500
C649        C  0.80326093  0.86746904  0.08478728     0.26900
C650        C  0.79806794  0.85234935  0.05851609    -0.20300
C651        C  0.80629873  0.83245469  0.06050693    -0.09900
C652        C  0.82008682  0.82721584  0.08875554    -0.10500
C653        C  0.82492019  0.84216207  0.11565822    -0.03400
C654        C  0.81663762  0.86208210  0.11371778    -0.18500
H655        H  0.80596323  0.97530940  0.11090590     0.10600
H656        H  0.81157032  0.93982206  0.13306483     0.10600
H657        H  0.76679974  0.91767502  0.05472308     0.10300
H658        H  0.76204084  0.95264699  0.03178610     0.11400
H659        H  0.80334702  0.90178331  0.13091425     0.11500
H660        H  0.78914592  0.89198692  0.05184203     0.13400
H661        H  0.78783247  0.85604509  0.03589740     0.09900
H662        H  0.80217331  0.82131736  0.03941368     0.12000
H663        H  0.83543596  0.83859907  0.13789254     0.08600
H664        H  0.82134254  0.87322711  0.13428512     0.11400
C665        C  0.87395693  0.67321448  0.34886157    -0.03200
C666        C  0.85888731  0.65908926  0.36026829    -0.05800
C667        C  0.86332127  0.63802690  0.36227267    -0.20900
C668        C  0.88299113  0.63071180  0.35372474     0.24800
C669        C  0.89820797  0.64489691  0.34280106    -0.18500
C670        C  0.89367068  0.66596730  0.34023871    -0.08400
C671        C  0.88634963  0.60810150  0.35252705    -0.18700
C672        C  0.90490171  0.59912284  0.35422347    -0.23500
C673        C  0.90801192  0.57708606  0.34455713     0.26900
C674        C  0.92501769  0.56630682  0.35850165    -0.20300
C675        C  0.92959189  0.54636974  0.34569440    -0.09900
C676        C  0.91743201  0.53730911  0.31821902    -0.10500
C677        C  0.90013395  0.54777021  0.30519292    -0.03400
C678        C  0.89541286  0.56741741  0.31822950    -0.18500
H679        H  0.84351126  0.66427469  0.36675551     0.10600
H680        H  0.85126558  0.62736392  0.37011263     0.10600
H681        H  0.91337080  0.63975833  0.33488721     0.10300
H682        H  0.90554677  0.67658941  0.33140609     0.11400
H683        H  0.87286887  0.59847710  0.34907152     0.11500
H684        H  0.91827593  0.60821052  0.36141611     0.13400
H685        H  0.93507969  0.57356688  0.37841581     0.09900
H686        H  0.94321831  0.53858375  0.35552393     0.12000
H687        H  0.89074077  0.54105272  0.28363391     0.08600
H688        H  0.88259878  0.57541871  0.30584350     0.11400
C689        C  0.83393437  0.82848338  0.33563311    -0.03200
C690        C  0.81366482  0.83298942  0.32555772    -0.05800
C691        C  0.80634164  0.85321305  0.32739673    -0.20900
C692        C  0.81925360  0.86933997  0.33842022     0.24800
C693        C  0.83972857  0.86495029  0.34748630    -0.18500
C694        C  0.84696859  0.84464867  0.34625648    -0.08400
C695        C  0.81035741  0.89008315  0.34406872    -0.18700
C696        C  0.82133500  0.90758880  0.34180993    -0.23500
C697        C  0.81286001  0.92768193  0.35388798     0.26900
C698        C  0.81987482  0.94602589  0.33744449    -0.20300
C699        C  0.81327220  0.96521094  0.35084205    -0.09900
C700        C  0.79994738  0.96624917  0.38147724    -0.10500
C701        C  0.79268219  0.94785376  0.39741652    -0.03400
C702        C  0.79905372  0.92878214  0.38380462    -0.18500
H703        H  0.80325161  0.82077841  0.31750405     0.10600
H704        H  0.79045335  0.85623821  0.32076386     0.10600
H705        H  0.84991761  0.87698293  0.35707394     0.10300
H706        H  0.86266143  0.84155027  0.35412315     0.11400
H707        H  0.79414763  0.89089935  0.35083797     0.11500
H708        H  0.83696524  0.90719776  0.33142476     0.13400
H709        H  0.83068545  0.94549215  0.31460688     0.09900
H710        H  0.81923933  0.97918009  0.33825633     0.12000
H711        H  0.78242285  0.94818416  0.42108525     0.08600
H712        H  0.79381761  0.91495381  0.39783613     0.11400
C713        C  0.64261015  0.68914702  0.31618109    -0.03200
C714        C  0.65856666  0.67564392  0.30650415    -0.05800
C715        C  0.67853765  0.67948805  0.31825726    -0.20900
C716        C  0.68304443  0.69730448  0.33875482     0.24800
C717        C  0.66695242  0.71049706  0.34962032    -0.18500
C718        C  0.64679529  0.70631032  0.33867529    -0.08400
C719        C  0.70478267  0.70203051  0.34677809    -0.18700
C720        C  0.71243525  0.72129005  0.34404552    -0.23500
C721        C  0.73476560  0.72561554  0.34485023     0.26900
C722        C  0.74250305  0.74200698  0.32350967    -0.20300
C723        C  0.76354354  0.74594143  0.32209169    -0.09900
C724        C  0.77729554  0.73377377  0.34257011    -0.10500
C725        C  0.76947763  0.71769344  0.36477198    -0.03400
C726        C  0.74844282  0.71361658  0.36584259    -0.18500
H727        H  0.65564319  0.66241384  0.28888860     0.10600
H728        H  0.69067051  0.66908498  0.30970711     0.10600
H729        H  0.67000386  0.72418360  0.36595827     0.10300
H730        H  0.63470655  0.71704283  0.34599712     0.11400
H731        H  0.71517093  0.68904117  0.34993909     0.11500
H732        H  0.70224355  0.73393508  0.33680852     0.13400
H733        H  0.73226248  0.75154796  0.30727899     0.09900
H734        H  0.76902024  0.75860082  0.30507604     0.12000
H735        H  0.77962542  0.70817536  0.38121521     0.08600
H736        H  0.74292493  0.70119292  0.38333693     0.11400
C737        C  0.64017739  0.69483883  0.12495394    -0.03200
C738        C  0.64338593  0.71028620  0.09821717    -0.05800
C739        C  0.66316401  0.71404550  0.08443818    -0.20900
C740        C  0.67992424  0.70237558  0.09707428     0.24800
C741        C  0.67623788  0.68577756  0.12143609    -0.18500
C742        C  0.65666093  0.68226696  0.13554383    -0.08400
C743        C  0.70107589  0.70832728  0.08573821    -0.18700
C744        C  0.71747144  0.70423674  0.10718402    -0.23500
C745        C  0.73883897  0.71087054  0.09929567     0.26900
C746        C  0.75455729  0.70170124  0.12000849    -0.20300
C747        C  0.77476152  0.70835885  0.11632791    -0.09900
C748        C  0.77981732  0.72448622  0.09187280    -0.10500
C749        C  0.76419974  0.73341163  0.07037157    -0.03400
C750        C  0.74388082  0.72671542  0.07407385    -0.18500
H751        H  0.63088140  0.72015634  0.08958099     0.10600
H752        H  0.66552047  0.72668489  0.06518107     0.10600
H753        H  0.68843645  0.67563154  0.13028991     0.10300
H754        H  0.65448001  0.66993985  0.15553040     0.11400
H755        H  0.70286879  0.71715489  0.06038188     0.11500
H756        H  0.71524621  0.69590572  0.13298106     0.13400
H757        H  0.75114746  0.68948998  0.13965920     0.09900
H758        H  0.78638063  0.70105095  0.13320264     0.12000
H759        H  0.76758683  0.74591659  0.05134428     0.08600
H760        H  0.73223009  0.73447611  0.05804621     0.11400
C761        C  0.42332595  0.72049509  0.10266378    -0.03200
C762        C  0.42933356  0.70096860  0.08951828    -0.05800
C763        C  0.45002665  0.69537611  0.08888532    -0.20900
C764        C  0.46514345  0.70933641  0.10047415     0.24800
C765        C  0.45918240  0.72896816  0.11324178    -0.18500
C766        C  0.43848413  0.73444001  0.11446688    -0.08400
C767        C  0.48669975  0.70226738  0.10251258    -0.18700
C768        C  0.50294011  0.71503330  0.09981244    -0.23500
C769        C  0.52402868  0.70807443  0.10870111     0.26900
C770        C  0.54107195  0.71765175  0.09203283    -0.20300
C771        C  0.56103338  0.71249279  0.10310004    -0.09900
C772        C  0.56411796  0.69805383  0.13165068    -0.10500
C773        C  0.54705079  0.68822013  0.14758702    -0.03400
C774        C  0.52729792  0.69314276  0.13631747    -0.18500
H775        H  0.41801897  0.68987019  0.08038993     0.10600
H776        H  0.45425233  0.68004700  0.07948687     0.10600
H777        H  0.47039575  0.73986472  0.12343923     0.10300
H778        H  0.43434945  0.74961697  0.12473537     0.11400
H779        H  0.48922944  0.68584446  0.10684337     0.11500
H780        H  0.50072383  0.73106340  0.09179390     0.13400
H781        H  0.53890729  0.72937979  0.07096699     0.09900
H782        H  0.57392526  0.72045634  0.09065127     0.12000
H783        H  0.54893399  0.67705246  0.16970646     0.08600
H784        H  0.51458710  0.68589367  0.15060949     0.11400
C785        C  0.42851166  0.95331601  0.08271042    -0.03200
C786        C  0.43942606  0.93662957  0.06734194    -0.05800
C787        C  0.43561807  0.91644766  0.07904068    -0.20900
C788        C  0.42050506  0.91247756  0.10572706     0.24800
C789        C  0.41040787  0.92919931  0.12283424    -0.18500
C790        C  0.41452242  0.94953433  0.11159108    -0.08400
C791        C  0.41465777  0.89072536  0.11288203    -0.18700
C792        C  0.39492504  0.88501217  0.11582113    -0.23500
C793        C  0.38824685  0.86312120  0.11431589     0.26900
C794        C  0.36923825  0.85855462  0.09833569    -0.20300
C795        C  0.36259753  0.83811650  0.09518431    -0.09900
C796        C  0.37464976  0.82182452  0.10875227    -0.10500
C797        C  0.39356085  0.82638486  0.12534112    -0.03400
C798        C  0.40036480  0.84684047  0.12793779    -0.18500
H799        H  0.45042639  0.93912347  0.04521852     0.10600
H800        H  0.44366320  0.90381554  0.06567818     0.10600
H801        H  0.39895188  0.92650664  0.14408218     0.10300
H802        H  0.40592443  0.96212050  0.12388399     0.11400
H803        H  0.42643962  0.87898988  0.10981157     0.11500
H804        H  0.38310032  0.89682308  0.11473987     0.13400
H805        H  0.35962521  0.87084029  0.08771508     0.09900
H806        H  0.34788349  0.83508947  0.08255350     0.12000
H807        H  0.40314743  0.81412485  0.13610947     0.08600
H808        H  0.41493612  0.84987391  0.14103797     0.11400
C809        C  0.42697079  0.71702335  0.34680477    -0.03200
C810        C  0.43268053  0.70436182  0.31688095    -0.05800
C811        C  0.45288943  0.69768826  0.31279244    -0.20900
C812        C  0.46795252  0.70334959  0.33852623     0.24800
C813        C  0.46227096  0.71591927  0.36873538    -0.18500
C814        C  0.44198280  0.72267090  0.37278276    -0.08400
C815        C  0.48938381  0.69657805  0.33119903    -0.18700
C816        C  0.50500931  0.69758551  0.35554592    -0.23500
C817        C  0.52632188  0.69172655  0.34496774     0.26900
C818        C  0.54298846  0.70150207  0.36222678    -0.20300
C819        C  0.56304276  0.69829387  0.34927066    -0.09900
C820        C  0.56663579  0.68527072  0.31881348    -0.10500
C821        C  0.55017279  0.67424902  0.30361965    -0.03400
C822        C  0.53029442  0.67723026  0.31678064    -0.18500
H823        H  0.42156840  0.69973406  0.29629397     0.10600
H824        H  0.45679784  0.68811942  0.28915164     0.10600
H825        H  0.47338948  0.72100981  0.38885194     0.10300
H826        H  0.43810632  0.73248006  0.39609761     0.11400
H827        H  0.49240995  0.69083595  0.30345868     0.11500
H828        H  0.50257014  0.70388864  0.38304362     0.13400
H829        H  0.54038906  0.71244687  0.38447122     0.09900
H830        H  0.57549708  0.70694571  0.36148137     0.12000
H831        H  0.55260409  0.66376705  0.28059360     0.08600
H832        H  0.51806908  0.66849022  0.30411845     0.11400
C833        C  0.42620855  0.95503606  0.39461795    -0.03200
C834        C  0.41173718  0.95323730  0.36613038    -0.05800
C835        C  0.40563274  0.93368166  0.35369114    -0.20900
C836        C  0.41392394  0.91568375  0.36945763     0.24800
C837        C  0.42964865  0.91764211  0.39579707    -0.18500
C838        C  0.43552818  0.93709703  0.40850989    -0.08400
C839        C  0.40543168  0.89518886  0.35893121    -0.18700
C840        C  0.40572402  0.87893226  0.38227969    -0.23500
C841        C  0.39700604  0.85828299  0.37400536     0.26900
C842        C  0.40424839  0.84142414  0.39449645    -0.20300
C843        C  0.39607669  0.82176845  0.38940323    -0.09900
C844        C  0.38020260  0.81843453  0.36387189    -0.10500
C845        C  0.37287076  0.83529763  0.34318237    -0.03400
C846        C  0.38120069  0.85508609  0.34817088    -0.18500
H847        H  0.40430219  0.96685289  0.35500414     0.10600
H848        H  0.39374258  0.93259559  0.33294256     0.10600
H849        H  0.43722952  0.90421995  0.40722379     0.10300
H850        H  0.44701324  0.93810153  0.43002117     0.11400
H851        H  0.39804649  0.89382972  0.33215918     0.11500
H852        H  0.41278114  0.88062917  0.40928854     0.13400
H853        H  0.41630744  0.84347054  0.41471748     0.09900
H854        H  0.40211828  0.80920245  0.40591935     0.12000
H855        H  0.36057485  0.83325503  0.32347020     0.08600
H856        H  0.37486017  0.86781836  0.33254315     0.11400
C857        C  0.13971821  0.82531274  0.07310571    -0.03200
C858        C  0.14132838  0.81252609  0.10448914    -0.05800
C859        C  0.16065292  0.80710043  0.11822826    -0.20900
C860        C  0.17847693  0.81438325  0.10069481     0.24800
C861        C  0.17667451  0.82886702  0.07182961    -0.18500
C862        C  0.15751479  0.83408438  0.05794218    -0.08400
C863        C  0.19872729  0.80565317  0.11064579    -0.18700
C864        C  0.21295894  0.80218590  0.08420614    -0.23500
C865        C  0.23364924  0.79345150  0.09038038     0.26900
C866        C  0.24812540  0.79574071  0.06184965    -0.20300
C867        C  0.26778526  0.78765236  0.06537986    -0.09900
C868        C  0.27342448  0.77680693  0.09748137    -0.10500
C869        C  0.25890539  0.77427788  0.12604797    -0.03400
C870        C  0.23917710  0.78256508  0.12262316    -0.18500
H871        H  0.12779196  0.80567088  0.11683040     0.10600
H872        H  0.16169917  0.79622557  0.14098947     0.10600
H873        H  0.19011952  0.83558090  0.05894175     0.10300
H874        H  0.15666299  0.84439619  0.03431958     0.11400
H875        H  0.20138478  0.80120407  0.13920926     0.11500
H876        H  0.20931299  0.80611897  0.05569117     0.13400
H877        H  0.24423270  0.80392629  0.03660691     0.09900
H878        H  0.27851832  0.78976421  0.04273755     0.12000
H879        H  0.26279639  0.76592392  0.15108596     0.08600
H880        H  0.22834503  0.78008458  0.14490530     0.11400
C881        C  0.92748584  0.78655021  0.10096366    -0.03200
C882        C  0.93023164  0.80666421  0.11484567    -0.05800
C883        C  0.94981405  0.81536037  0.11663816    -0.20900
C884        C  0.96704610  0.80393560  0.10561957     0.24800
C885        C  0.96438265  0.78360242  0.09275546    -0.18500
C886        C  0.94478760  0.77506046  0.09022767    -0.08400
C887        C  0.98726985  0.81423266  0.10349028    -0.18700
C888        C  0.00501540  0.80405632  0.10843512    -0.23500
C889        C  0.02508208  0.81298286  0.09770516     0.26900
C890        C  0.04291798  0.80665321  0.11610532    -0.20300
C891        C  0.06224969  0.81241304  0.10266571    -0.09900
C892        C  0.06400399  0.82411855  0.06997434    -0.10500
C893        C  0.04611562  0.83111265  0.05247511    -0.03400
C894        C  0.02686898  0.82569386  0.06625021    -0.18500
H895        H  0.91718785  0.81590501  0.12326905     0.10600
H896        H  0.95149976  0.83114174  0.12619493     0.10600
H897        H  0.97732688  0.77459253  0.08313220     0.10300
H898        H  0.94316565  0.75950218  0.07954965     0.11400
H899        H  0.98753313  0.83054694  0.09630636     0.11500
H900        H  0.00480650  0.78832817  0.11903221     0.13400
H901        H  0.04189279  0.79671089  0.14021760     0.09900
H902        H  0.07578119  0.80671919  0.11660501     0.12000
H903        H  0.04699192  0.84017954  0.02725915     0.08600
H904        H  0.01346174  0.83044279  0.05089260     0.11400
C905        C  0.27443084  0.76775009  0.35582256    -0.03200
C906        C  0.25935170  0.75559151  0.37321915    -0.05800
C907        C  0.23874360  0.76136858  0.37197026    -0.20900
C908        C  0.23271222  0.77953570  0.35374897     0.24800
C909        C  0.24775763  0.79171748  0.33622896    -0.18500
C910        C  0.26838659  0.78588219  0.33730544    -0.08400
C911        C  0.21063837  0.78518418  0.35383834    -0.18700
C912        C  0.20387709  0.80479137  0.35116447    -0.23500
C913        C  0.18223454  0.81039533  0.35867271     0.26900
C914        C  0.17820327  0.82842193  0.37895889    -0.20300
C915        C  0.15836295  0.83282921  0.39111497    -0.09900
C916        C  0.14205392  0.81965833  0.38215187    -0.10500
C917        C  0.14575090  0.80241760  0.35945854    -0.03400
C918        C  0.16577020  0.79768743  0.34805631    -0.18500
H919        H  0.26342805  0.74148840  0.38760945     0.10600
H920        H  0.22747410  0.75169246  0.38563656     0.10600
H921        H  0.24367251  0.80556807  0.32115556     0.10300
H922        H  0.27958638  0.79553716  0.32343542     0.11400
H923        H  0.19970786  0.77301045  0.36014989     0.11500
H924        H  0.21480747  0.81734816  0.34868025     0.13400
H925        H  0.19060629  0.83851717  0.38717818     0.09900
H926        H  0.15582433  0.84625429  0.40849371     0.12000
H927        H  0.13338584  0.79202472  0.35233298     0.08600
H928        H  0.16842187  0.78390346  0.33170009     0.11400
C929        C  0.93395053  0.77176479  0.33375479    -0.03200
C930        C  0.94903116  0.75878998  0.31835019    -0.05800
C931        C  0.96973880  0.76454134  0.31908619    -0.20900
C932        C  0.97577612  0.78348351  0.33467195     0.24800
C933        C  0.96059289  0.79646083  0.34988464    -0.18500
C934        C  0.94001268  0.79069314  0.34930370    -0.08400
C935        C  0.99800985  0.78855125  0.33730029    -0.18700
C936        C  0.00500408  0.80789816  0.34288064    -0.23500
C937        C  0.02639043  0.81256488  0.35360757     0.26900
C938        C  0.02957101  0.82822496  0.37975506    -0.20300
C939        C  0.04910567  0.83210155  0.39344895    -0.09900
C940        C  0.06604085  0.82074676  0.38061753    -0.10500
C941        C  0.06315269  0.80590107  0.35269421    -0.03400
C942        C  0.04338693  0.80166253  0.33951625    -0.18500
H943        H  0.94488495  0.74402672  0.30640581     0.10600
H944        H  0.98109969  0.75409603  0.30768259     0.10600
H945        H  0.96444132  0.81080318  0.36351167     0.10300
H946        H  0.92883163  0.80104028  0.36154045     0.11400
H947        H  0.00881865  0.77578725  0.33653917     0.11500
H948        H  0.99435941  0.82075933  0.34348577     0.13400
H949        H  0.01674324  0.83692190  0.39081459     0.09900
H950        H  0.05090998  0.84373098  0.41479113     0.12000
H951        H  0.07597777  0.79694006  0.34239044     0.08600
H952        H  0.04138944  0.78979048  0.31870887     0.11400
C953        C  0.29396772  0.45446050  0.31527581    -0.03200
C954        C  0.28362755  0.43677609  0.30281274    -0.05800
C955        C  0.28890394  0.41725146  0.31604728    -0.20900
C956        C  0.30500891  0.41489390  0.34121671     0.24800
C957        C  0.31508850  0.43260288  0.35457995    -0.18500
C958        C  0.30944442  0.45230369  0.34193516    -0.08400
C959        C  0.31111334  0.39365091  0.35181678    -0.18700
C960        C  0.33078108  0.38800658  0.35620307    -0.23500
C961        C  0.33703683  0.36597026  0.35843110     0.26900
C962        C  0.35574641  0.35994967  0.34253828    -0.20300
C963        C  0.36132163  0.33908991  0.34115094    -0.09900
C964        C  0.34843010  0.32382594  0.35625174    -0.10500
C965        C  0.33007570  0.32996345  0.37357748    -0.03400
C966        C  0.32441298  0.35080840  0.37461748    -0.18500
H967        H  0.27155923  0.43803492  0.28241552     0.10600
H968        H  0.28086613  0.40384640  0.30552471     0.10600
H969        H  0.32734596  0.43121666  0.37454388     0.10300
H970        H  0.31766297  0.46572720  0.35186989     0.11400
H971        H  0.29934725  0.38180856  0.35075589     0.11500
H972        H  0.34274859  0.39955972  0.35323834     0.13400
H973        H  0.36579660  0.37136283  0.33013898     0.09900
H974        H  0.37570292  0.33491974  0.32809097     0.12000
H975        H  0.31992244  0.31862782  0.38590204     0.08600
H976        H  0.31014542  0.35499845  0.38802457     0.11400
C977        C  0.28795620  0.53068416  0.32066295    -0.03200
C978        C  0.27407330  0.54663077  0.31269473    -0.05800
C979        C  0.27696356  0.56637022  0.32726595    -0.20900
C980        C  0.29412994  0.57066941  0.34907640     0.24800
C981        C  0.30751459  0.55448300  0.35865949    -0.18500
C982        C  0.30432320  0.53453648  0.34477701    -0.08400
C983        C  0.29844041  0.59245508  0.35869386    -0.18700
C984        C  0.31746557  0.60027628  0.35619807    -0.23500
C985        C  0.32171479  0.62277779  0.35667291     0.26900
C986        C  0.33847827  0.63022309  0.33625225    -0.20300
C987        C  0.34264271  0.65137334  0.33470246    -0.09900
C988        C  0.33029242  0.66553002  0.35410419    -0.10500
C989        C  0.31365574  0.65804541  0.37505024    -0.03400
C990        C  0.30937607  0.63687694  0.37629965    -0.18500
H991        H  0.26126779  0.54393918  0.29432056     0.10600
H992        H  0.26641495  0.57858964  0.31973645     0.10600
H993        H  0.32068348  0.55736841  0.37604517     0.10300
H994        H  0.31522383  0.52244416  0.35121395     0.11400
H995        H  0.28545812  0.60279960  0.36193880     0.11500
H996        H  0.33005932  0.59004294  0.34892260     0.13400
H997        H  0.34822078  0.61964835  0.32096316     0.09900
H998        H  0.35567341  0.65660265  0.31857573     0.12000
H999        H  0.30393916  0.66854400  0.39053372     0.08600
H1000       H  0.29659300  0.63160718  0.39298151     0.11400
C1001       C  0.27811560  0.53325386  0.12983874    -0.03200
C1002       C  0.29095463  0.53741970  0.09944843    -0.05800
C1003       C  0.29381911  0.55781696  0.08741347    -0.20900
C1004       C  0.28387157  0.57425632  0.10551952     0.24800
C1005       C  0.26943593  0.56972868  0.13341099    -0.18500
C1006       C  0.26679806  0.54946482  0.14570475    -0.08400
C1007       C  0.29002104  0.59583089  0.09666362    -0.18700
C1008       C  0.28877711  0.61123961  0.12175523    -0.23500
C1009       C  0.29743767  0.63220369  0.11608669     0.26900
C1010       C  0.28968991  0.64854725  0.13750712    -0.20300
C1011       C  0.29833495  0.66824693  0.13517509    -0.09900
C1012       C  0.31514400  0.67199972  0.11163999    -0.10500
C1013       C  0.32289954  0.65563176  0.09010863    -0.03400
C1014       C  0.31417065  0.63592549  0.09232312    -0.18500
H1015       H  0.29978670  0.52515046  0.08665935     0.10600
H1016       H  0.30474039  0.56086503  0.06539781     0.10600
H1017       H  0.26060201  0.58179903  0.14668353     0.10300
H1018       H  0.25641532  0.54654676  0.16862012     0.11400
H1019       H  0.29724357  0.59862856  0.06998830     0.11500
H1020       H  0.28171054  0.60839169  0.14853248     0.13400
H1021       H  0.27696505  0.64602383  0.15633627     0.09900
H1022       H  0.29197018  0.68047515  0.15218559     0.12000
H1023       H  0.33589953  0.65796497  0.07185534     0.08600
H1024       H  0.32101392  0.62358245  0.07629518     0.11400
C1025       C  0.33788717  0.32220368  0.10842785    -0.03200
C1026       C  0.32635175  0.32777517  0.13982322    -0.05800
C1027       C  0.31780741  0.34743643  0.14280178    -0.20900
C1028       C  0.32037453  0.36206972  0.11444119     0.24800
C1029       C  0.33197359  0.35660841  0.08291109    -0.18500
C1030       C  0.34069293  0.33684708  0.08002710    -0.08400
C1031       C  0.31098853  0.38277231  0.12005566    -0.18700
C1032       C  0.30914262  0.39766875  0.09408876    -0.23500
C1033       C  0.29965745  0.41795120  0.10319057     0.26900
C1034       C  0.30690254  0.43610461  0.08618301    -0.20300
C1035       C  0.30008472  0.45554207  0.09836748    -0.09900
C1036       C  0.28593574  0.45694588  0.12767984    -0.10500
C1037       C  0.27748995  0.43876741  0.14242614    -0.03400
C1038       C  0.28407855  0.41949717  0.13006697    -0.18500
H1039       H  0.32395710  0.31694748  0.16234331     0.10600
H1040       H  0.30905572  0.35119760  0.16748360     0.10600
H1041       H  0.33460491  0.36747197  0.06063827     0.10300
H1042       H  0.34951047  0.33299473  0.05549631     0.11400
H1043       H  0.30532978  0.38590826  0.14783922     0.11500
H1044       H  0.31542668  0.39555276  0.06650286     0.13400
H1045       H  0.31864544  0.43527932  0.06494260     0.09900
H1046       H  0.30682616  0.46937967  0.08661801     0.12000
H1047       H  0.26627655  0.43946761  0.16462153     0.08600
H1048       H  0.27733830  0.40584184  0.14243047     0.11400
C1049       C  0.27830407  0.51288454  0.64823276     0.80200
N1050       N  0.27705659  0.51219656  0.68585183    -0.78100
C1051       C  0.27835576  0.49394953  0.70407751     0.82600
N1052       N  0.28069321  0.47629544  0.68451051    -0.78100
C1053       C  0.28206100  0.47663896  0.64699955     0.82700
N1054       N  0.28133368  0.49506803  0.62873789    -0.79800
C1055       C  0.28941155  0.47464156  0.79807805     0.80200
N1056       N  0.28435967  0.47522296  0.76164412    -0.78100
C1057       C  0.28048490  0.49342475  0.74449555     0.82600
N1058       N  0.28137436  0.51122212  0.76414710    -0.78100
C1059       C  0.28637790  0.51092848  0.80066340     0.82700
N1060       N  0.29082421  0.49262038  0.81751684    -0.79800
C1061       C  0.08591202  0.82316679  0.89955336     0.80200
N1062       N  0.10410681  0.82039185  0.88154188    -0.78100
C1063       C  0.12202812  0.82269981  0.90037588     0.82600
N1064       N  0.12160281  0.82689911  0.93728831    -0.78100
C1065       C  0.10353662  0.82907498  0.95546276     0.82700
N1066       N  0.08582701  0.82734250  0.93642178    -0.79800
C1067       C  0.12017475  0.82765322  0.55320136     0.80200
N1068       N  0.10186296  0.82599629  0.57112943    -0.78100
C1069       C  0.08407586  0.82714748  0.55167059     0.82600
N1070       N  0.08480875  0.82916531  0.51419999    -0.78100
C1071       C  0.10298026  0.83032006  0.49607913     0.82700
N1072       N  0.12058451  0.82960716  0.51569425    -0.79800
O1073       O  0.39227740  0.71849864  0.82685556    -0.78500
C1074       C  0.33519033  0.68786779  0.85352195     0.82500
O1075       O  0.34231724  0.76163180  0.76882299    -0.79600
O1076       O  0.30128846  0.74538849  0.87515594    -0.81100
O1077       O  0.36614205  0.74899020  0.94344867    -0.80900
O1078       O  0.40080151  0.73676440  0.87663558    -0.79500
Zn1079     Zn  0.36176594  0.72226457  0.82017600     1.55700
O1080       O  0.33496396  0.73494162  0.94248592    -0.80900
Cd1081     Cd  0.37367244  0.75218324  0.88780459     1.59700
Cd1082     Cd  0.34023483  0.76722774  0.82559789     1.59600
O1083       O  0.37913260  0.78299773  0.87945139    -0.80900
O1084       O  0.35119018  0.74300710  0.85432276    -1.91400
Cd1085     Cd  0.32896489  0.73114829  0.88624703     1.59900
O1086       O  0.35640491  0.79420066  0.83810703    -0.80900
O1087       O  0.32607698  0.69987752  0.87622639    -0.79500
C1088       C  0.34900049  0.74613608  0.75058074     0.83000
C1089       C  0.40555240  0.72447721  0.85036076     0.82600
O1090       O  0.34867892  0.69455976  0.83081726    -0.78500
C1091       C  0.35026057  0.74219125  0.96001845     0.83500
O1092       O  0.35654502  0.73028707  0.76652261    -0.78600
C1093       C  0.37138759  0.79743649  0.86001726     0.83600
C1094       C  0.29622260  0.76125320  0.85626017     0.83900
O1095       O  0.30934488  0.77151226  0.83744493    -0.81000
O1096       O  0.37459647  0.78674611  0.62826215    -0.78500
C1097       C  0.34799490  0.74653420  0.70994987     0.82500
O1098       O  0.38833394  0.71634053  0.58523852    -0.79600
O1099       O  0.31688507  0.70732311  0.62944540    -0.81100
O1100       O  0.30786897  0.77376048  0.57711509    -0.80900
O1101       O  0.35365891  0.79569775  0.58243834    -0.79500
Zn1102     Zn  0.36991485  0.75630155  0.63678300     1.55700
O1103       O  0.29834383  0.75539433  0.62655175    -0.80900
Cd1104     Cd  0.33881316  0.76821891  0.57087270     1.59700
Cd1105     Cd  0.35734339  0.72173207  0.57592565     1.59600
O1106       O  0.34410802  0.76004907  0.51595796    -0.80900
O1107       O  0.34783363  0.74609910  0.60581203    -1.91400
Cd1108     Cd  0.32421289  0.73802306  0.63832132     1.59900
O1109       O  0.35416484  0.72709994  0.51928428    -0.80900
O1110       O  0.33136532  0.74134662  0.69411919    -0.79500
C1111       C  0.40144016  0.72645412  0.60411692     0.83000
C1112       C  0.36729311  0.80026107  0.60626353     0.82600
O1113       O  0.36380661  0.75198539  0.69156602    -0.78500
C1114       C  0.29433872  0.76818451  0.60065731     0.83500
O1115       O  0.39623166  0.74184815  0.62405483    -0.78600
C1116       C  0.34944514  0.74312942  0.00060100     0.83600
C1117       C  0.32460251  0.69280955  0.60993347     0.83900
O1118       O  0.34018988  0.69572694  0.58909949    -0.81000
C1119       C  0.58449379  0.69451342  0.64818811     0.80200
N1120       N  0.58541151  0.68978977  0.68479322    -0.78100
C1121       C  0.60357278  0.68681796  0.70177879     0.82600
N1122       N  0.62108203  0.68832975  0.68183921    -0.78100
C1123       C  0.62056004  0.69296032  0.64510566     0.82700
N1124       N  0.60219696  0.69647861  0.62827998    -0.79800
C1125       C  0.62263056  0.68691921  0.79794934     0.80200
N1126       N  0.60471606  0.68696644  0.81756769    -0.78100
C1127       C  0.58656937  0.68501976  0.79930544     0.82600
N1128       N  0.58651524  0.68406291  0.76173613    -0.78100
C1129       C  0.60421128  0.68462055  0.74216526     0.82700
N1130       N  0.62223977  0.68584044  0.76036996    -0.79800
O1131       O  0.83176675  0.79359460  0.81680717    -0.78500
C1132       C  0.85537630  0.75016726  0.73507571     0.82500
O1133       O  0.81123794  0.72943472  0.86501640    -0.79600
O1134       O  0.87874913  0.70649175  0.82243054    -0.81100
O1135       O  0.89992324  0.77568222  0.85595553    -0.80900
O1136       O  0.85597135  0.80196938  0.85741277    -0.79500
Zn1137     Zn  0.83454732  0.76333995  0.80731642     1.55700
O1138       O  0.90581582  0.75052251  0.81508581    -0.80900
Cd1139     Cd  0.86918844  0.77365725  0.86904317     1.59700
Cd1140     Cd  0.84238015  0.73164821  0.87380827     1.59600
O1141       O  0.86646367  0.76814614  0.92599376    -0.80900
O1142       O  0.85563460  0.75161883  0.83891158    -1.91400
Cd1143     Cd  0.87689849  0.73740485  0.80748003     1.59900
O1144       O  0.84626026  0.74036703  0.92864079    -0.80900
O1145       O  0.86947964  0.73990922  0.75121333    -0.79500
C1146       C  0.79957435  0.73819683  0.84157225     0.83000
C1147       C  0.84104939  0.80689407  0.83651260     0.82600
O1148       O  0.84167063  0.75993635  0.75315742    -0.78500
C1149       C  0.91205640  0.76560655  0.83486928     0.83500
O1150       O  0.80662692  0.75091104  0.81770382    -0.78600
C1151       C  0.85640363  0.75467185  0.94439240     0.83600
C1152       C  0.86895563  0.69535499  0.84573488     0.83900
O1153       O  0.85483809  0.70267017  0.86642875    -0.81000
O1154       O  0.83970344  0.75922852  0.50213387    -0.78500
C1155       C  0.80113465  0.73232685  0.59016494     0.82500
O1156       O  0.84350882  0.80281325  0.61379111    -0.79600
O1157       O  0.85084216  0.73488136  0.67605975    -0.81100
O1158       O  0.88451920  0.71460581  0.56481292    -0.80900
O1159       O  0.87298342  0.75133678  0.50233510    -0.79500
Zn1160     Zn  0.83167936  0.76284722  0.55638259     1.55700
O1161       O  0.86020552  0.70397455  0.60395382    -0.80900
Cd1162     Cd  0.87837869  0.74606118  0.55850944     1.59700
Cd1163     Cd  0.86157615  0.77718518  0.62348640     1.59600
O1164       O  0.90399388  0.76259727  0.57490868    -0.80900
O1165       O  0.85394978  0.75431509  0.58892243    -1.91400
Cd1166     Cd  0.84512815  0.73037613  0.61990945     1.59900
O1167       O  0.89204020  0.78533882  0.61618620    -0.80900
O1168       O  0.81424227  0.72511181  0.61285661    -0.79500
C1169       C  0.82981608  0.80650948  0.58958788     0.83000
C1170       C  0.85643756  0.75536257  0.98510255     0.82600
O1171       O  0.80591105  0.74625522  0.56663059    -0.78500
C1172       C  0.87553596  0.70029282  0.58305231     0.83500
O1173       O  0.82444873  0.79288527  0.56594756    -0.78600
C1174       C  0.90670390  0.77768849  0.59714519     0.83600
C1175       C  0.85489783  0.75117237  0.69443626     0.83900
O1176       O  0.85813927  0.76852700  0.67871573    -0.81000
C1177       C  0.92242084  0.52083126  0.64566608     0.80200
N1178       N  0.92512504  0.52061568  0.68298475    -0.78100
C1179       C  0.92954276  0.50278614  0.70093524     0.82600
N1180       N  0.93154554  0.48508822  0.68137548    -0.78100
C1181       C  0.92885321  0.48493105  0.64410537     0.82700
N1182       N  0.92389624  0.50281277  0.62617842    -0.79800
C1183       C  0.93234323  0.48323165  0.79717265     0.80200
N1184       N  0.92743503  0.50054495  0.81679450    -0.78100
C1185       C  0.92405625  0.51865199  0.79861931     0.82600
N1186       N  0.92525165  0.51933780  0.76111779    -0.78100
C1187       C  0.93018724  0.50225588  0.74149878     0.82700
N1188       N  0.93361722  0.48423650  0.75957796    -0.79800
C1189       C  0.79275729  0.02252064  0.89725624     0.80200
N1190       N  0.78777472  0.02267620  0.93388240    -0.78100
C1191       C  0.78629575  0.00472465  0.95310472     0.82600
N1192       N  0.78979018  0.98657928  0.93552590    -0.78100
C1193       C  0.79490542  0.98618400  0.89903480     0.82700
N1194       N  0.79666941  0.00424642  0.88002293    -0.79800
C1195       C  0.78367074  0.98667116  0.55005457     0.80200
N1196       N  0.78286679  0.98690257  0.51245497    -0.78100
C1197       C  0.78382730  0.00494468  0.49350674     0.82600
N1198       N  0.78541996  0.02292970  0.51238390    -0.78100
C1199       C  0.78633033  0.02300195  0.54999335     0.82700
N1200       N  0.78591526  0.00476135  0.56888708    -0.79800
O1201       O  0.89697516  0.29083138  0.86210599    -0.78500
C1202       C  0.86970925  0.24691037  0.94281623     0.82500
O1203       O  0.91400900  0.22334831  0.81723777    -0.79600
O1204       O  0.84437896  0.20631430  0.85384356    -0.81100
O1205       O  0.82916089  0.27638246  0.81995576    -0.80900
O1206       O  0.87560366  0.29852278  0.81616662    -0.79500
Zn1207     Zn  0.89210257  0.26034054  0.87195445     1.55700
O1208       O  0.82096259  0.25222352  0.86143748    -0.80900
Cd1209     Cd  0.85961873  0.27159122  0.80769191     1.59700
Cd1210     Cd  0.88342519  0.22800266  0.80458722     1.59600
O1211       O  0.86160287  0.26517360  0.75158155    -0.80900
O1212       O  0.87126821  0.24915756  0.83893410    -1.91400
Cd1213     Cd  0.84863290  0.23667833  0.86930834     1.59900
O1214       O  0.88128210  0.23702574  0.74892479    -0.80900
O1215       O  0.85552033  0.23750119  0.92553437    -0.79500
C1216       C  0.92570677  0.23188518  0.84096085     0.83000
C1217       C  0.88975757  0.30359112  0.83858317     0.82600
O1218       O  0.88394166  0.25661684  0.92591070    -0.78500
C1219       C  0.81606735  0.26749248  0.84085496     0.83500
O1220       O  0.91913020  0.24579962  0.86307975    -0.78600
C1221       C  0.87134735  0.25155790  0.73316396     0.83600
C1222       C  0.85309195  0.19419948  0.83076556     0.83900
O1223       O  0.86807507  0.20007465  0.81051385    -0.81000
O1224       O  0.90688642  0.22078591  0.56746511    -0.78500
C1225       C  0.84456269  0.19909486  0.59509642     0.82500
O1226       O  0.86386827  0.26477298  0.49833618    -0.79600
O1227       O  0.81908612  0.26134891  0.61047170    -0.81100
O1228       O  0.88629735  0.25785710  0.67409147    -0.80900
O1229       O  0.91801445  0.24569286  0.60494423    -0.79500
Zn1230     Zn  0.87676552  0.22681930  0.55839992     1.55700
O1231       O  0.85364131  0.24770289  0.67681514    -0.80900
Cd1232     Cd  0.89163127  0.26206881  0.61726457     1.59700
Cd1233     Cd  0.85814821  0.27264935  0.55257211     1.59600
O1234       O  0.89648689  0.29339799  0.60511715    -0.80900
O1235       O  0.86826315  0.25098789  0.58722832    -1.91400
Cd1236     Cd  0.84524378  0.24422423  0.62175217     1.59900
O1237       O  0.87289098  0.30011460  0.56220350    -0.80900
O1238       O  0.83725090  0.21374892  0.61466810    -0.79500
C1239       C  0.86898175  0.24774248  0.98338806     0.83000
C1240       C  0.92124920  0.22952285  0.58555975     0.82600
O1241       O  0.85981284  0.20178871  0.57334681    -0.78500
C1242       C  0.87045805  0.25239218  0.69249785     0.83500
O1243       O  0.87335571  0.23175709  0.50256196    -0.78600
C1244       C  0.88760795  0.30587755  0.58282026     0.83600
C1245       C  0.81401354  0.27256615  0.58288748     0.83900
O1246       O  0.82684892  0.27742232  0.55764386    -0.81000
C1247       C  0.60050991  0.31175648  0.64104214     0.80200
N1248       N  0.60018756  0.31404983  0.67848615    -0.78100
C1249       C  0.61775854  0.31693196  0.69755262     0.82600
N1250       N  0.63572751  0.31794519  0.67893654    -0.78100
C1251       C  0.63640424  0.31589349  0.64150008     0.82700
N1252       N  0.61875847  0.31228878  0.62244099    -0.79800
C1253       C  0.63536708  0.31151514  0.79425555     0.80200
N1254       N  0.61722741  0.31068462  0.81298096    -0.78100
C1255       C  0.59932738  0.31348978  0.79433477     0.82600
N1256       N  0.59968047  0.31620164  0.75699870    -0.78100
C1257       C  0.61763272  0.31659087  0.73819710     0.82700
N1258       N  0.63541590  0.31444509  0.75696665    -0.79800
C1259       C  0.42993193  0.01149874  0.91329178     0.80200
N1260       N  0.42795458  0.99327761  0.89470515    -0.78100
C1261       C  0.42981340  0.97501581  0.91318942     0.82600
N1262       N  0.43293893  0.97513076  0.95035466    -0.78100
C1263       C  0.43439406  0.99316556  0.96917655     0.82700
N1264       N  0.43290942  0.01127044  0.95055117    -0.79800
C1265       C  0.43002853  0.97385651  0.56500506     0.80200
N1266       N  0.43364385  0.97467972  0.52797297    -0.78100
C1267       C  0.43405242  0.99295417  0.50979947     0.82600
N1268       N  0.43102207  0.01068599  0.52896551    -0.78100
C1269       C  0.42731270  0.01023246  0.56605551     0.82700
N1270       N  0.42636409  0.99170182  0.58406327    -0.79800
C1271       C  0.10027792  0.17674390  0.89957470     0.80200
N1272       N  0.11826371  0.18019212  0.88126216    -0.78100
C1273       C  0.13632267  0.17915559  0.89999188     0.82600
N1274       N  0.13614298  0.17557814  0.93707089    -0.78100
C1275       C  0.11829248  0.17279940  0.95557212     0.82700
N1276       N  0.10042942  0.17328643  0.93670410    -0.79800
C1277       C  0.13622655  0.17628859  0.55219372     0.80200
N1278       N  0.11822407  0.17900735  0.57088015    -0.78100
C1279       C  0.10016130  0.17773557  0.55215752     0.82600
N1280       N  0.10030736  0.17467144  0.51492772    -0.78100
C1281       C  0.11817106  0.17264868  0.49618261     0.82700
N1282       N  0.13603777  0.17333089  0.51495062    -0.79800
O1283       O  0.41803389  0.24842225  0.87971333    -0.78500
C1284       C  0.36691312  0.24471228  0.95679708     0.82500
O1285       O  0.37536531  0.19621005  0.82614768    -0.79600
O1286       O  0.31963846  0.24266123  0.86919851    -0.81100
O1287       O  0.36908085  0.29621875  0.83343992    -0.80900
O1288       O  0.41340251  0.27102926  0.83398521    -0.79500
Zn1289     Zn  0.39079629  0.23392170  0.88599115     1.55700
O1290       O  0.34413535  0.28860753  0.87357873    -0.80900
Cd1291     Cd  0.38277430  0.26799803  0.82159520     1.59700
Cd1292     Cd  0.35962281  0.22365027  0.81892861     1.59600
O1293       O  0.38017465  0.26184382  0.76491965    -0.80900
O1294       O  0.37032869  0.24559455  0.85277026    -1.91400
Cd1295     Cd  0.34706894  0.25715375  0.88266435     1.59900
O1296       O  0.36286660  0.23209491  0.76388656    -0.80900
O1297       O  0.35242619  0.25343481  0.93910640    -0.79500
C1298       C  0.38938766  0.19130220  0.84897889     0.83000
C1299       C  0.42485095  0.26236070  0.85793726     0.82600
O1300       O  0.38204871  0.23626548  0.94021892    -0.78500
C1301       C  0.35417313  0.30167630  0.85424715     0.83500
O1302       O  0.39600553  0.20409865  0.87297552    -0.78600
C1303       C  0.37154081  0.24714468  0.74735960     0.83600
C1304       C  0.31526057  0.22744593  0.84812961     0.83900
O1305       O  0.32884333  0.21838272  0.82851092    -0.81000
O1306       O  0.38636552  0.24238874  0.68769426    -0.78500
C1307       C  0.38532834  0.19196323  0.60822276     0.82500
O1308       O  0.40714460  0.27568590  0.57541910    -0.79600
O1309       O  0.36107240  0.22897129  0.51537764    -0.81100
O1310       O  0.31880430  0.24145879  0.62833761    -0.80900
O1311       O  0.35389843  0.25277494  0.69170180    -0.79500
Zn1312     Zn  0.39095643  0.23714970  0.63221650     1.55700
O1313       O  0.32496512  0.21973527  0.58173944    -0.80900
Cd1314     Cd  0.34598845  0.25663235  0.63694843     1.59700
Cd1315     Cd  0.37609393  0.26984259  0.56906479     1.59600
O1316       O  0.34041753  0.28754213  0.62882423    -0.80900
O1317       O  0.36775714  0.24657875  0.60266079    -1.91400
Cd1318     Cd  0.35628834  0.22344616  0.57195323     1.59900
O1319       O  0.35980635  0.29685122  0.58069125    -0.80900
O1320       O  0.37032386  0.19590438  0.58679522    -0.79500
C1321       C  0.42110633  0.26664865  0.59406484     0.83000
C1322       C  0.37072435  0.24769463  0.70677357     0.82600
O1323       O  0.39459325  0.20622659  0.62591008    -0.78500
C1324       C  0.31279103  0.22776349  0.60551696     0.83500
O1325       O  0.41703446  0.25159120  0.61577238    -0.78600
C1326       C  0.34656709  0.30108959  0.60569958     0.83600
C1327       C  0.36649660  0.24513720  0.99753250     0.83900
O1328       O  0.37163479  0.26183963  0.51381388    -0.81000
C1329       C  0.15621648  0.17718759  0.57088596    -0.03200
C1330       C  0.17167253  0.16343613  0.55975084    -0.05800
C1331       C  0.19177805  0.16619102  0.57152665    -0.20900
C1332       C  0.19700474  0.18303250  0.59400159     0.24800
C1333       C  0.18126447  0.19610550  0.60718367    -0.18500
C1334       C  0.16096662  0.19312284  0.59575942    -0.08400
C1335       C  0.21912860  0.18688434  0.60070379    -0.18700
C1336       C  0.22689441  0.20557779  0.60893871    -0.23500
C1337       C  0.24921535  0.20991899  0.60916103     0.26900
C1338       C  0.25655731  0.22582419  0.63181631    -0.20300
C1339       C  0.27722119  0.23133774  0.63096695    -0.09900
C1340       C  0.29101624  0.22127705  0.60690951    -0.10500
C1341       C  0.28367625  0.20531291  0.58414821    -0.03400
C1342       C  0.26298525  0.19967253  0.58525171    -0.18500
H1343       H  0.16830579  0.15094731  0.54072554     0.10600
H1344       H  0.20348858  0.15573755  0.56135401     0.10600
H1345       H  0.18454393  0.20886889  0.62555421     0.10300
H1346       H  0.14925116  0.20391832  0.60464080     0.11400
H1347       H  0.22959650  0.17414515  0.59552472     0.11500
H1348       H  0.21673942  0.21845978  0.61470117     0.13400
H1349       H  0.24622887  0.23408670  0.65014266     0.09900
H1350       H  0.28230837  0.24373637  0.64885555     0.12000
H1351       H  0.29385827  0.19733048  0.56518801     0.08600
H1352       H  0.25773137  0.18777414  0.56649474     0.11400
C1353       C  0.29386545  0.21991367  0.84649138    -0.03200
C1354       C  0.28961216  0.19997539  0.83308934    -0.05800
C1355       C  0.26957298  0.19242111  0.83302924    -0.20900
C1356       C  0.25329004  0.20475024  0.84554410     0.24800
C1357       C  0.25742983  0.22489307  0.85818544    -0.18500
C1358       C  0.27754455  0.23234856  0.85880864    -0.08400
C1359       C  0.23261369  0.19541122  0.84869473    -0.18700
C1360       C  0.21512408  0.20641652  0.84767284    -0.23500
C1361       C  0.19492407  0.19719963  0.85699298     0.26900
C1362       C  0.17696007  0.20565366  0.84194062    -0.20300
C1363       C  0.15766825  0.19877167  0.85388320    -0.09900
C1364       C  0.15611305  0.18371174  0.88180456    -0.10500
C1365       C  0.17407632  0.17480055  0.89591360    -0.03400
C1366       C  0.19325522  0.18139847  0.88361082    -0.18500
H1367       H  0.30185123  0.18998035  0.82354349     0.10600
H1368       H  0.26679947  0.17677715  0.82357811     0.10600
H1369       H  0.24530443  0.23462114  0.86894804     0.10300
H1370       H  0.28034264  0.24778680  0.86923088     0.11400
H1371       H  0.23184160  0.17875257  0.85228801     0.11500
H1372       H  0.21558484  0.22271242  0.84044437     0.13400
H1373       H  0.17786958  0.21796783  0.82164004     0.09900
H1374       H  0.14404626  0.20605094  0.84289059     0.12000
H1375       H  0.17330094  0.16321075  0.91757015     0.08600
H1376       H  0.20671331  0.17488459  0.89655289     0.11400
C1377       C  0.42312973  0.02994299  0.58523921    -0.03200
C1378       C  0.40677421  0.03192293  0.61037080    -0.05800
C1379       C  0.40070032  0.05155684  0.62282178    -0.20900
C1380       C  0.41116690  0.06940598  0.61102054     0.24800
C1381       C  0.42818164  0.06714484  0.58729633    -0.18500
C1382       C  0.43400397  0.04766618  0.57450997    -0.08400
C1383       C  0.40269058  0.09020783  0.61987911    -0.18700
C1384       C  0.41414870  0.10753878  0.61897807    -0.23500
C1385       C  0.40561013  0.12885686  0.61959771     0.26900
C1386       C  0.41873641  0.14535605  0.62807860    -0.20300
C1387       C  0.41204120  0.16582151  0.62506855    -0.09900
C1388       C  0.39213800  0.17026501  0.61279176    -0.10500
C1389       C  0.37888271  0.15378408  0.60463926    -0.03400
C1390       C  0.38549713  0.13328756  0.60811572    -0.18500
H1391       H  0.39797525  0.01848182  0.61860243     0.10600
H1392       H  0.38740733  0.05287635  0.64073035     0.10600
H1393       H  0.43632873  0.08043426  0.57660435     0.10300
H1394       H  0.44659783  0.04652219  0.55496458     0.11400
H1395       H  0.38642368  0.09125003  0.62589131     0.11500
H1396       H  0.43067391  0.10618388  0.61662890     0.13400
H1397       H  0.43437329  0.14240414  0.63650441     0.09900
H1398       H  0.42263116  0.17818621  0.63142671     0.12000
H1399       H  0.36341915  0.15673997  0.59526666     0.08600
H1400       H  0.37506682  0.12107191  0.60035604     0.11400
C1401       C  0.42722404  0.03157236  0.89430927    -0.03200
C1402       C  0.41612098  0.03312258  0.86114056    -0.05800
C1403       C  0.41160351  0.05255115  0.84603924    -0.20900
C1404       C  0.41848402  0.07068419  0.86336379     0.24800
C1405       C  0.43011074  0.06902218  0.89595945    -0.18500
C1406       C  0.43443600  0.04971376  0.91116298    -0.08400
C1407       C  0.41165137  0.09112720  0.84933910    -0.18700
C1408       C  0.42252950  0.10851889  0.85503570    -0.23500
C1409       C  0.41445263  0.12977366  0.84953544     0.26900
C1410       C  0.42443250  0.14601422  0.86781287    -0.20300
C1411       C  0.41642576  0.16599254  0.86714680    -0.09900
C1412       C  0.39831795  0.17028884  0.84776908    -0.10500
C1413       C  0.38884083  0.15430535  0.82779119    -0.03400
C1414       C  0.39679077  0.13420382  0.82869111    -0.18500
H1415       H  0.41021029  0.01940573  0.84772127     0.10600
H1416       H  0.40239935  0.05345391  0.82118849     0.10600
H1417       H  0.43509476  0.08260084  0.91090376     0.10300
H1418       H  0.44300147  0.04904060  0.93678157     0.11400
H1419       H  0.39681861  0.09176017  0.83605987     0.11500
H1420       H  0.43761227  0.10725403  0.86737127     0.13400
H1421       H  0.43815738  0.14311781  0.88377277     0.09900
H1422       H  0.42431409  0.17803501  0.88226698     0.12000
H1423       H  0.37501725  0.15722217  0.81214769     0.08600
H1424       H  0.38893325  0.12230852  0.81329031     0.11400
C1425       C  0.44661976  0.26858860  0.86005763    -0.03200
C1426       C  0.46086832  0.25680785  0.88019364    -0.05800
C1427       C  0.48158453  0.26237219  0.88054365    -0.20900
C1428       C  0.48839315  0.27996440  0.86133646     0.24800
C1429       C  0.47407251  0.29175159  0.84130231    -0.18500
C1430       C  0.45346701  0.28615261  0.84079557    -0.08400
C1431       C  0.51064676  0.28468975  0.85997165    -0.18700
C1432       C  0.51789556  0.30369183  0.85229310    -0.23500
C1433       C  0.53944116  0.30751366  0.84163495     0.26900
C1434       C  0.54323228  0.32175993  0.81318885    -0.20300
C1435       C  0.56291755  0.32419351  0.79890121    -0.09900
C1436       C  0.57933396  0.31278820  0.81340363    -0.10500
C1437       C  0.57586464  0.29954032  0.84364750    -0.03400
C1438       C  0.55596302  0.29674365  0.85748153    -0.18500
H1439       H  0.45609104  0.24307440  0.89505760     0.10600
H1440       H  0.49235044  0.25283743  0.89564788     0.10600
H1441       H  0.47872141  0.30490915  0.82481714     0.10300
H1442       H  0.44292419  0.29548711  0.82481641     0.11400
H1443       H  0.52125394  0.27187809  0.86317496     0.11500
H1444       H  0.50735327  0.31654378  0.84928259     0.13400
H1445       H  0.53074876  0.33031002  0.80075314     0.09900
H1446       H  0.56522580  0.33466799  0.77580598     0.12000
H1447       H  0.58831355  0.29062743  0.85531982     0.08600
H1448       H  0.55347197  0.28598025  0.88004331     0.11400
C1449       C  0.58096356  0.30774384  0.62193776    -0.10400
C1450       C  0.57922482  0.29192881  0.59552604    -0.05800
C1451       C  0.55984711  0.28564229  0.58320577    -0.20900
C1452       C  0.54199541  0.29540762  0.59637660     0.24800
C1453       C  0.54395772  0.31199371  0.62131693    -0.18500
C1454       C  0.56320545  0.31798176  0.63405761    -0.08400
C1455       C  0.52156872  0.28655146  0.58745934    -0.18700
C1456       C  0.50418172  0.29778098  0.58847596    -0.23500
C1457       C  0.48333009  0.28863552  0.58665192     0.26900
C1458       C  0.46695840  0.30111284  0.57514030    -0.20300
C1459       C  0.44682277  0.29379443  0.57669691    -0.09900
C1460       C  0.44255820  0.27394886  0.59060501    -0.10500
C1461       C  0.45895785  0.26135259  0.60183885    -0.03400
C1462       C  0.47914212  0.26856671  0.59974244    -0.18500
H1463       H  0.59269414  0.28361866  0.58619546     0.10600
H1464       H  0.55874488  0.27270001  0.56428150     0.10600
H1465       H  0.53062579  0.31958066  0.63290394     0.10300
H1466       H  0.56416839  0.33014576  0.65461310     0.11400
H1467       H  0.52083574  0.27018308  0.58093734     0.11500
H1468       H  0.50514117  0.31446127  0.59136041     0.13400
H1469       H  0.46974039  0.31670796  0.56538097     0.09900
H1470       H  0.43453272  0.30390982  0.56796030     0.12000
H1471       H  0.45617092  0.24597394  0.61261854     0.08600
H1472       H  0.49130035  0.25870244  0.60979915     0.11400
C1473       C  0.79257443  0.27984261  0.57988169    -0.03200
C1474       C  0.78399567  0.28451446  0.54512902    -0.05800
C1475       C  0.76338031  0.29035074  0.54229525    -0.20900
C1476       C  0.75118748  0.29222281  0.57421370     0.24800
C1477       C  0.75984069  0.28771810  0.60895746    -0.18500
C1478       C  0.78025169  0.28147491  0.61171578    -0.08400
C1479       C  0.72922171  0.29793141  0.57117349    -0.18700
C1480       C  0.72035289  0.31029111  0.59655875    -0.23500
C1481       C  0.69797993  0.31401768  0.60066068     0.26900
C1482       C  0.69183537  0.32883153  0.62678573    -0.20300
C1483       C  0.67146322  0.33027006  0.63795271    -0.09900
C1484       C  0.65660775  0.31704278  0.62306186    -0.10500
C1485       C  0.66225652  0.30332516  0.59463170    -0.03400
C1486       C  0.68287159  0.30170736  0.58359661    -0.18500
H1487       H  0.79309102  0.28317632  0.52007169     0.10600
H1488       H  0.75698111  0.29352959  0.51522896     0.10600
H1489       H  0.75067359  0.28851301  0.63399857     0.10300
H1490       H  0.78639762  0.27790483  0.63881595     0.11400
H1491       H  0.72047889  0.29176382  0.54820083     0.11500
H1492       H  0.73016674  0.31747180  0.61715153     0.13400
H1493       H  0.70304198  0.33859471  0.64023829     0.09900
H1494       H  0.66747064  0.34113325  0.65967785     0.12000
H1495       H  0.65106391  0.29289001  0.58289895     0.08600
H1496       H  0.68696445  0.28999475  0.56351968     0.11400
C1497       C  0.94223144  0.22072312  0.58409031    -0.03200
C1498       C  0.94700910  0.20456639  0.55952469    -0.05800
C1499       C  0.96685250  0.19649817  0.55786014    -0.20900
C1500       C  0.98238032  0.20420705  0.58087290     0.24800
C1501       C  0.97760372  0.22036717  0.60556347    -0.18500
C1502       C  0.95775960  0.22850226  0.60711250    -0.08400
C1503       C  0.00341213  0.19562856  0.57653570    -0.18700
C1504       C  0.01894969  0.19859291  0.60055008    -0.23500
C1505       C  0.04007070  0.19107389  0.59280986     0.26900
C1506       C  0.05691958  0.20225695  0.60635214    -0.20300
C1507       C  0.07690863  0.19708802  0.59537996    -0.09900
C1508       C  0.08023059  0.18065793  0.57070410    -0.10500
C1509       C  0.06355251  0.16856474  0.55945839    -0.03400
C1510       C  0.04370907  0.17353538  0.57072212    -0.18500
H1511       H  0.93546438  0.19826368  0.54128067     0.10600
H1512       H  0.97010170  0.18418682  0.53834092     0.10600
H1513       H  0.98910807  0.22717283  0.62317687     0.10300
H1514       H  0.95461729  0.24099164  0.62629400     0.11400
H1515       H  0.00624518  0.18680201  0.55145385     0.11500
H1516       H  0.01666098  0.20778375  0.62532926     0.13400
H1517       H  0.05453491  0.21565397  0.62385279     0.09900
H1518       H  0.08956202  0.20668061  0.60424188     0.12000
H1519       H  0.06582840  0.15562176  0.54083175     0.08600
H1520       H  0.03125016  0.16390513  0.56124617     0.11400
C1521       C  0.79456290  0.27494664  0.84002586    -0.03200
C1522       C  0.78914842  0.29099716  0.81569921    -0.05800
C1523       C  0.76883245  0.29724453  0.81232348    -0.20900
C1524       C  0.75331552  0.28783197  0.83333191     0.24800
C1525       C  0.75864428  0.27208288  0.85849344    -0.18500
C1526       C  0.77911847  0.26569544  0.86175209    -0.08400
C1527       C  0.73189179  0.29432094  0.82593857    -0.18700
C1528       C  0.71568206  0.29111296  0.84852325    -0.23500
C1529       C  0.69471011  0.29821118  0.83836832     0.26900
C1530       C  0.67745436  0.28765320  0.85212827    -0.20300
C1531       C  0.65774427  0.29274915  0.83967344    -0.09900
C1532       C  0.65511121  0.30839624  0.81311185    -0.10500
C1533       C  0.67216049  0.31981561  0.80132235    -0.03400
C1534       C  0.69167017  0.31504181  0.81422104    -0.18500
H1535       H  0.80056204  0.29851734  0.79852382     0.10600
H1536       H  0.76519066  0.30939563  0.79272454     0.10600
H1537       H  0.74709023  0.26421667  0.87474484     0.10300
H1538       H  0.78277745  0.25324198  0.88068344     0.11400
H1539       H  0.72951949  0.30225279  0.79980266     0.11500
H1540       H  0.71754171  0.28258422  0.87419038     0.13400
H1541       H  0.67930728  0.27489041  0.87127908     0.09900
H1542       H  0.64476297  0.28374162  0.84916068     0.12000
H1543       H  0.67042750  0.33223151  0.78139168     0.08600
H1544       H  0.70432215  0.32442358  0.80461983     0.11400
C1545       C  0.94758195  0.22583531  0.84234974    -0.03200
C1546       C  0.96184268  0.23839250  0.86076910    -0.05800
C1547       C  0.98261143  0.23320616  0.86091032    -0.20900
C1548       C  0.98955085  0.21515712  0.84336403     0.24800
C1549       C  0.97533600  0.20253450  0.82490323    -0.18500
C1550       C  0.95456429  0.20787553  0.82430799    -0.08400
C1551       C  0.01167666  0.21002432  0.84510100    -0.18700
C1552       C  0.01869596  0.19047513  0.84611984    -0.23500
C1553       C  0.04029245  0.18566126  0.85516784     0.26900
C1554       C  0.04435665  0.16895555  0.87876168    -0.20300
C1555       C  0.06414560  0.16553727  0.89186751    -0.09900
C1556       C  0.08036276  0.17839077  0.88071511    -0.10500
C1557       C  0.07662921  0.19421218  0.85496754    -0.03400
C1558       C  0.05667375  0.19795966  0.84251248    -0.18500
H1559       H  0.95700499  0.25241882  0.87465917     0.10600
H1560       H  0.99327811  0.24320529  0.87521402     0.10600
H1561       H  0.98025096  0.18873141  0.81043999     0.10300
H1562       H  0.94397132  0.19793976  0.80971435     0.11400
H1563       H  0.02229348  0.22266973  0.84985156     0.11500
H1564       H  0.00791001  0.17771042  0.84544830     0.13400
H1565       H  0.03200484  0.15919705  0.88863611     0.09900
H1566       H  0.06669660  0.15318596  0.91162261     0.12000
H1567       H  0.08889993  0.20435833  0.84611274     0.08600
H1568       H  0.05399248  0.21070080  0.82366336     0.11400
C1569       C  0.78983269  0.04281164  0.56903607    -0.03200
C1570       C  0.80319379  0.04409089  0.59931311    -0.05800
C1571       C  0.80983965  0.06341058  0.61194368    -0.20900
C1572       C  0.80286017  0.08166269  0.59507021     0.24800
C1573       C  0.78838998  0.08029262  0.56641665    -0.18500
C1574       C  0.78202192  0.06105891  0.55350040    -0.08400
C1575       C  0.81287813  0.10158275  0.60407973    -0.18700
C1576       C  0.80381670  0.11997918  0.59847165    -0.23500
C1577       C  0.81507751  0.13979243  0.60022448     0.26900
C1578       C  0.80448694  0.15776123  0.61039139    -0.20300
C1579       C  0.81426530  0.17694051  0.60949994    -0.09900
C1580       C  0.83470157  0.17858552  0.59743878    -0.10500
C1581       C  0.84531113  0.16059953  0.58706208    -0.03400
C1582       C  0.83562882  0.14133817  0.58865032    -0.18500
H1583       H  0.80956167  0.03021091  0.61150965     0.10600
H1584       H  0.82109062  0.06409234  0.63388770     0.10600
H1585       H  0.78299750  0.09394175  0.55211733     0.10300
H1586       H  0.77169905  0.06043975  0.53008918     0.11400
H1587       H  0.82851041  0.10107196  0.61422966     0.11500
H1588       H  0.78761413  0.12064557  0.59192337     0.13400
H1589       H  0.78856807  0.15695930  0.61883768     0.09900
H1590       H  0.80564598  0.19057132  0.61736154     0.12000
H1591       H  0.86104705  0.16143577  0.57758893     0.08600
H1592       H  0.84401460  0.12780525  0.57957538     0.11400
C1593       C  0.79503484  0.04224893  0.87728879    -0.03200
C1594       C  0.78314028  0.05931863  0.88788318    -0.05800
C1595       C  0.78653922  0.07862777  0.87188736    -0.20900
C1596       C  0.80222964  0.08138515  0.84571463     0.24800
C1597       C  0.81355369  0.06409849  0.83372598    -0.18500
C1598       C  0.80985785  0.04461351  0.84927245    -0.08400
C1599       C  0.80704560  0.10276678  0.83396062    -0.18700
C1600       C  0.82613967  0.10913168  0.82570841    -0.23500
C1601       C  0.83181029  0.13132403  0.82464738     0.26900
C1602       C  0.84886870  0.13763046  0.80377586    -0.20300
C1603       C  0.85561018  0.15815402  0.80506233    -0.09900
C1604       C  0.84556692  0.17267733  0.82776428    -0.10500
C1605       C  0.82842559  0.16633236  0.84848628    -0.03400
C1606       C  0.82166200  0.14591927  0.84705881    -0.18500
H1607       H  0.77144743  0.05781062  0.90910092     0.10600
H1608       H  0.77751717  0.09167851  0.88133973     0.10600
H1609       H  0.82541157  0.06561593  0.81286931     0.10300
H1610       H  0.81915707  0.03161130  0.84054554     0.11400
H1611       H  0.79489992  0.11413445  0.83676794     0.11500
H1612       H  0.83839726  0.09794273  0.82236310     0.13400
H1613       H  0.85711646  0.12659649  0.78675721     0.09900
H1614       H  0.86890014  0.16253662  0.78883044     0.12000
H1615       H  0.82039437  0.17705915  0.86643661     0.08600
H1616       H  0.80897457  0.14151656  0.86473764     0.11400
C1617       C  0.93402913  0.46284240  0.81538797    -0.03200
C1618       C  0.92325392  0.45845095  0.84828013    -0.05800
C1619       C  0.92156792  0.43802359  0.86091737    -0.20900
C1620       C  0.93060128  0.42178884  0.84083909     0.24800
C1621       C  0.94303488  0.42653086  0.81008408    -0.18500
C1622       C  0.94454854  0.44679984  0.79730585    -0.08400
C1623       C  0.92537527  0.40005170  0.85017263    -0.18700
C1624       C  0.92317349  0.38580689  0.82326552    -0.23500
C1625       C  0.91480484  0.36477598  0.82902918     0.26900
C1626       C  0.90531137  0.35516041  0.79883852    -0.20300
C1627       C  0.89698507  0.33545432  0.80235967    -0.09900
C1628       C  0.89832692  0.32466525  0.83601724    -0.10500
C1629       C  0.90821166  0.33403019  0.86622031    -0.03400
C1630       C  0.91627454  0.35404326  0.86286684    -0.18500
H1631       H  0.91505472  0.47054541  0.86285611     0.10600
H1632       H  0.91215123  0.43476846  0.88501160     0.10600
H1633       H  0.95098486  0.41449025  0.79495107     0.10300
H1634       H  0.95333710  0.44980040  0.77234228     0.11400
H1635       H  0.92087198  0.39643953  0.87844332     0.11500
H1636       H  0.92570944  0.39038441  0.79463801     0.13400
H1637       H  0.90413347  0.36303046  0.77240447     0.09900
H1638       H  0.88973349  0.32852375  0.77844691     0.12000
H1639       H  0.90955936  0.32595619  0.89240575     0.08600
H1640       H  0.92389702  0.36087724  0.88644195     0.11400
C1641       C  0.89421085  0.32778914  0.58056102    -0.03200
C1642       C  0.88230759  0.34216099  0.56080357    -0.05800
C1643       C  0.88770611  0.36302104  0.55980391    -0.20900
C1644       C  0.90523204  0.37010114  0.57812565     0.24800
C1645       C  0.91754810  0.35564564  0.59706685    -0.18500
C1646       C  0.91206209  0.33470742  0.59823548    -0.08400
C1647       C  0.90878586  0.39281321  0.57980606    -0.18700
C1648       C  0.92666671  0.40155657  0.58956616    -0.23500
C1649       C  0.92867744  0.42391872  0.59835035     0.26900
C1650       C  0.94344645  0.42976644  0.62437711    -0.20300
C1651       C  0.94415049  0.44999022  0.63762683    -0.09900
C1652       C  0.93035724  0.46495456  0.62459136    -0.10500
C1653       C  0.91659182  0.45963384  0.59641715    -0.03400
C1654       C  0.91568125  0.43921862  0.58344564    -0.18500
H1655       H  0.86847099  0.33740469  0.54675728     0.10600
H1656       H  0.87787763  0.37376930  0.54521171     0.10600
H1657       H  0.93093712  0.36042131  0.61230991     0.10300
H1658       H  0.92160793  0.32401061  0.61351571     0.11400
H1659       H  0.89561180  0.40261632  0.57469773     0.11500
H1660       H  0.93987548  0.39184859  0.59483695     0.13400
H1661       H  0.95378398  0.41839532  0.63599034     0.09900
H1662       H  0.95504494  0.45377421  0.65915309     0.12000
H1663       H  0.90582245  0.47093157  0.58593289     0.08600
H1664       H  0.90454615  0.43544176  0.56240346     0.11400
C1665       C  0.91743533  0.54066154  0.62741159    -0.03200
C1666       C  0.90383173  0.54162679  0.59741406    -0.05800
C1667       C  0.89742674  0.56083960  0.58358684    -0.20900
C1668       C  0.90498753  0.57930754  0.59878748     0.24800
C1669       C  0.91909867  0.57823049  0.62802479    -0.18500
C1670       C  0.92514944  0.55914165  0.64224634    -0.08400
C1671       C  0.89654983  0.59949080  0.58655617    -0.18700
C1672       C  0.90750634  0.61711517  0.58777974    -0.23500
C1673       C  0.89836772  0.63790331  0.58249724     0.26900
C1674       C  0.91079563  0.65424276  0.57015124    -0.20300
C1675       C  0.90319017  0.67446944  0.56884745    -0.09900
C1676       C  0.88313020  0.67877122  0.58075488    -0.10500
C1677       C  0.87060396  0.66234433  0.59256997    -0.03400
C1678       C  0.87809657  0.64213003  0.59332816    -0.18500
H1679       H  0.89748698  0.52760229  0.58579403     0.10600
H1680       H  0.88632469  0.56130424  0.56137324     0.10600
H1681       H  0.92478658  0.59212036  0.64114072     0.10300
H1682       H  0.93561391  0.55884265  0.66546593     0.11400
H1683       H  0.88078673  0.59986328  0.57709056     0.11500
H1684       H  0.92379006  0.61638743  0.59368610     0.13400
H1685       H  0.92654610  0.65138754  0.56210813     0.09900
H1686       H  0.91323225  0.68682021  0.55982804     0.12000
H1687       H  0.85507302  0.66516216  0.60195071     0.08600
H1688       H  0.86827017  0.63002322  0.60398769     0.11400
C1689       C  0.78391560  0.96653235  0.56915129    -0.03200
C1690       C  0.79715277  0.96280781  0.59897546    -0.05800
C1691       C  0.80040220  0.94255182  0.61148881    -0.20900
C1692       C  0.79041213  0.92584382  0.59444558     0.24800
C1693       C  0.77566150  0.92996450  0.56711104    -0.18500
C1694       C  0.77267270  0.95005823  0.55429643    -0.08400
C1695       C  0.79653905  0.90434401  0.60395908    -0.18700
C1696       C  0.79544318  0.88882114  0.57904103    -0.23500
C1697       C  0.80326027  0.86746893  0.58478739     0.26900
C1698       C  0.79806743  0.85234924  0.55851610    -0.20300
C1699       C  0.80629833  0.83245462  0.56050694    -0.09900
C1700       C  0.82008636  0.82721579  0.58875570    -0.10500
C1701       C  0.82491955  0.84216202  0.61565851    -0.03400
C1702       C  0.81663689  0.86208202  0.61371802    -0.18500
H1703       H  0.80596257  0.97530919  0.61090652     0.10600
H1704       H  0.81156937  0.93982183  0.63306546     0.10600
H1705       H  0.76679930  0.91767502  0.55472254     0.10300
H1706       H  0.76204075  0.95264702  0.53178548     0.11400
H1707       H  0.80334603  0.90178312  0.63091445     0.11500
H1708       H  0.78914538  0.89198680  0.55184195     0.13400
H1709       H  0.78783200  0.85604495  0.53589736     0.09900
H1710       H  0.80217303  0.82131730  0.53941361     0.12000
H1711       H  0.83543525  0.83859905  0.63789294     0.08600
H1712       H  0.82134170  0.87322704  0.63428543     0.11400
C1713       C  0.87395660  0.67321437  0.84886149    -0.03200
C1714       C  0.85888690  0.65908916  0.86026782    -0.05800
C1715       C  0.86332084  0.63802681  0.86227237    -0.20900
C1716       C  0.88299074  0.63071168  0.85372479     0.24800
C1717       C  0.89820766  0.64489679  0.84280146    -0.18500
C1718       C  0.89367043  0.66596719  0.84023917    -0.08400
C1719       C  0.88634922  0.60810140  0.85252707    -0.18700
C1720       C  0.90490128  0.59912271  0.85422380    -0.23500
C1721       C  0.90801153  0.57708597  0.84455727     0.26900
C1722       C  0.92501704  0.56630654  0.85850235    -0.20300
C1723       C  0.92959133  0.54636953  0.84569485    -0.09900
C1724       C  0.91743178  0.53730915  0.81821871    -0.10500
C1725       C  0.90013394  0.54777044  0.80519209    -0.03400
C1726       C  0.89541276  0.56741755  0.81822894    -0.18500
H1727       H  0.84351077  0.66427458  0.86675464     0.10600
H1728       H  0.85126510  0.62736383  0.87011214     0.10600
H1729       H  0.91337053  0.63975819  0.83488782     0.10300
H1730       H  0.90554659  0.67658929  0.83140692     0.11400
H1731       H  0.87286847  0.59847699  0.84907119     0.11500
H1732       H  0.91827547  0.60821037  0.86141682     0.13400
H1733       H  0.93507879  0.57356640  0.87841718     0.09900
H1734       H  0.94321758  0.53858340  0.85552486     0.12000
H1735       H  0.89074099  0.54105315  0.78363254     0.08600
H1736       H  0.88259885  0.57541898  0.80584260     0.11400
C1737       C  0.83393440  0.82848338  0.83563319    -0.03200
C1738       C  0.81366493  0.83298950  0.82555743    -0.05800
C1739       C  0.80634177  0.85321312  0.82739643    -0.20900
C1740       C  0.81925370  0.86934000  0.83842026     0.24800
C1741       C  0.83972861  0.86495025  0.84748673    -0.18500
C1742       C  0.84696859  0.84464861  0.84625699    -0.08400
C1743       C  0.81035755  0.89008321  0.84406867    -0.18700
C1744       C  0.82133520  0.90758882  0.84181000    -0.23500
C1745       C  0.81286024  0.92768197  0.85388808     0.26900
C1746       C  0.81987504  0.94602595  0.83744462    -0.20300
C1747       C  0.81327242  0.96521099  0.85084223    -0.09900
C1748       C  0.79994754  0.96624920  0.88147731    -0.10500
C1749       C  0.79268240  0.94785377  0.89741664    -0.03400
C1750       C  0.79905400  0.92878216  0.88380476    -0.18500
H1751       H  0.80325173  0.82077853  0.81750340     0.10600
H1752       H  0.79045353  0.85623834  0.82076322     0.10600
H1753       H  0.84991761  0.87698287  0.85707461     0.10300
H1754       H  0.86266135  0.84155016  0.85412405     0.11400
H1755       H  0.79414774  0.89089945  0.85083777     0.11500
H1756       H  0.83696547  0.90719773  0.83142496     0.13400
H1757       H  0.83068567  0.94549223  0.81460700     0.09900
H1758       H  0.81923960  0.97918014  0.83825658     0.12000
H1759       H  0.78242307  0.94818415  0.92108536     0.08600
H1760       H  0.79381795  0.91495382  0.89783631     0.11400
C1761       C  0.64261011  0.68914672  0.81618158    -0.03200
C1762       C  0.65856658  0.67564346  0.80650514    -0.05800
C1763       C  0.67853757  0.67948766  0.81825814    -0.20900
C1764       C  0.68304438  0.69730429  0.83875511     0.24800
C1765       C  0.66695239  0.71049702  0.84962017    -0.18500
C1766       C  0.64679527  0.70631022  0.83867528    -0.08400
C1767       C  0.70478264  0.70203034  0.84677820    -0.18700
C1768       C  0.71243524  0.72128986  0.84404526    -0.23500
C1769       C  0.73476560  0.72561538  0.84484992     0.26900
C1770       C  0.74250301  0.74200686  0.82350939    -0.20300
C1771       C  0.76354350  0.74594138  0.82209140    -0.09900
C1772       C  0.77729555  0.73377374  0.84256974    -0.10500
C1773       C  0.76947770  0.71769333  0.86477147    -0.03400
C1774       C  0.74844288  0.71361641  0.86584214    -0.18500
H1775       H  0.65564307  0.66241321  0.78889004     0.10600
H1776       H  0.69067040  0.66908448  0.80970831     0.10600
H1777       H  0.67000384  0.72418374  0.86595767     0.10300
H1778       H  0.63470652  0.71704280  0.84599677     0.11400
H1779       H  0.71517086  0.68904099  0.84993940     0.11500
H1780       H  0.70224353  0.73393483  0.83680808     0.13400
H1781       H  0.73226240  0.75154781  0.80727872     0.09900
H1782       H  0.76902015  0.75860080  0.80507578     0.12000
H1783       H  0.77962553  0.70817527  0.88121461     0.08600
H1784       H  0.74292507  0.70119271  0.88333646     0.11400
C1785       C  0.64017748  0.69483896  0.62495448    -0.03200
C1786       C  0.64338608  0.71028643  0.59821791    -0.05800
C1787       C  0.66316415  0.71404564  0.58443885    -0.20900
C1788       C  0.67992433  0.70237558  0.59707469     0.24800
C1789       C  0.67623793  0.68577752  0.62143639    -0.18500
C1790       C  0.65666098  0.68226698  0.63554419    -0.08400
C1791       C  0.70107600  0.70832716  0.58573849    -0.18700
C1792       C  0.71747161  0.70423634  0.60718396    -0.23500
C1793       C  0.73883912  0.71087017  0.59929557     0.26900
C1794       C  0.75455748  0.70170082  0.62000820    -0.20300
C1795       C  0.77476169  0.70835845  0.61632758    -0.09900
C1796       C  0.77981743  0.72448592  0.59187262    -0.10500
C1797       C  0.76419981  0.73341137  0.57037154    -0.03400
C1798       C  0.74388091  0.72671511  0.57407384    -0.18500
H1799       H  0.63088160  0.72015665  0.58958189     0.10600
H1800       H  0.66552063  0.72668510  0.56518183     0.10600
H1801       H  0.68843645  0.67563139  0.63029004     0.10300
H1802       H  0.65448003  0.66993979  0.65553058     0.11400
H1803       H  0.70286886  0.71715496  0.56038235     0.11500
H1804       H  0.71524644  0.69590511  0.63298082     0.13400
H1805       H  0.75114769  0.68948949  0.63965883     0.09900
H1806       H  0.78638084  0.70105051  0.63320222     0.12000
H1807       H  0.76758686  0.74591638  0.55134437     0.08600
H1808       H  0.73223017  0.73447584  0.55804627     0.11400
C1809       C  0.42332605  0.72049548  0.60266382    -0.03200
C1810       C  0.42933365  0.70096882  0.58951916    -0.05800
C1811       C  0.45002675  0.69537637  0.58888618    -0.20900
C1812       C  0.46514357  0.70933688  0.60047420     0.24800
C1813       C  0.45918252  0.72896880  0.61324097    -0.18500
C1814       C  0.43848425  0.73444062  0.61446605    -0.08400
C1815       C  0.48669986  0.70226786  0.60251284    -0.18700
C1816       C  0.50294026  0.71503371  0.59981254    -0.23500
C1817       C  0.52402879  0.70807481  0.60870145     0.26900
C1818       C  0.54107210  0.71765201  0.59203315    -0.20300
C1819       C  0.56103350  0.71249301  0.60310042    -0.09900
C1820       C  0.56411801  0.69805412  0.63165120    -0.10500
C1821       C  0.54705080  0.68822052  0.64758758    -0.03400
C1822       C  0.52729796  0.69314321  0.63631797    -0.18500
H1823       H  0.41801905  0.68987023  0.58039153     0.10600
H1824       H  0.45425243  0.68004713  0.57948843     0.10600
H1825       H  0.47039589  0.73986554  0.62343782     0.10300
H1826       H  0.43434957  0.74961772  0.62473385     0.11400
H1827       H  0.48922953  0.68584497  0.60684398     0.11500
H1828       H  0.50072405  0.73106377  0.59179366     0.13400
H1829       H  0.53890749  0.72938003  0.57096721     0.09900
H1830       H  0.57392540  0.72045647  0.59065156     0.12000
H1831       H  0.54893395  0.67705286  0.66970708     0.08600
H1832       H  0.51458709  0.68589420  0.65061007     0.11400
C1833       C  0.42851166  0.95331616  0.58271023    -0.03200
C1834       C  0.43942617  0.93662971  0.56734204    -0.05800
C1835       C  0.43561810  0.91644781  0.57904076    -0.20900
C1836       C  0.42050488  0.91247774  0.60572679     0.24800
C1837       C  0.41040756  0.92919951  0.62283365    -0.18500
C1838       C  0.41452221  0.94953450  0.61159055    -0.08400
C1839       C  0.41465749  0.89072557  0.61288175    -0.18700
C1840       C  0.39492475  0.88501243  0.61582062    -0.23500
C1841       C  0.38824656  0.86312147  0.61431558     0.26900
C1842       C  0.36923809  0.85855479  0.59833498    -0.20300
C1843       C  0.36259740  0.83811666  0.59518382    -0.09900
C1844       C  0.37464955  0.82182477  0.60875237    -0.10500
C1845       C  0.39356048  0.82638521  0.62534165    -0.03400
C1846       C  0.40036440  0.84684083  0.62793813    -0.18500
H1847       H  0.45042665  0.93912360  0.54521883     0.10600
H1848       H  0.44366333  0.90381566  0.56567853     0.10600
H1849       H  0.39895140  0.92650688  0.64408130     0.10300
H1850       H  0.40592412  0.96212069  0.62388318     0.11400
H1851       H  0.42643936  0.87899005  0.60981160     0.11500
H1852       H  0.38310004  0.89682335  0.61473902     0.13400
H1853       H  0.35962512  0.87084041  0.58771389     0.09900
H1854       H  0.34788345  0.83508955  0.58255271     0.12000
H1855       H  0.40314697  0.81412527  0.63611052     0.08600
H1856       H  0.41493560  0.84987437  0.64103864     0.11400
C1857       C  0.42697084  0.71702304  0.84680495    -0.03200
C1858       C  0.43268052  0.70436145  0.81688117    -0.05800
C1859       C  0.45288939  0.69768784  0.81279263    -0.20900
C1860       C  0.46795253  0.70334918  0.83852631     0.24800
C1861       C  0.46227104  0.71591894  0.86873538    -0.18500
C1862       C  0.44198290  0.72267063  0.87278284    -0.08400
C1863       C  0.48938381  0.69657763  0.83119911    -0.18700
C1864       C  0.50500927  0.69758487  0.85554612    -0.23500
C1865       C  0.52632184  0.69172589  0.84496800     0.26900
C1866       C  0.54298845  0.70150103  0.86222764    -0.20300
C1867       C  0.56304277  0.69829286  0.84927154    -0.09900
C1868       C  0.56663579  0.68527011  0.81881378    -0.10500
C1869       C  0.55017275  0.67424872  0.80361940    -0.03400
C1870       C  0.53029437  0.67722992  0.81678034    -0.18500
H1871       H  0.42156835  0.69973367  0.79629428     0.10600
H1872       H  0.45679775  0.68811892  0.78915188     0.10600
H1873       H  0.47338962  0.72100951  0.88885180     0.10300
H1874       H  0.43810649  0.73247985  0.89609762     0.11400
H1875       H  0.49240997  0.69083573  0.80345862     0.11500
H1876       H  0.50257003  0.70388778  0.88304401     0.13400
H1877       H  0.54038908  0.71244556  0.88447254     0.09900
H1878       H  0.57549712  0.70694446  0.86148269     0.12000
H1879       H  0.55260402  0.66376702  0.78059292     0.08600
H1880       H  0.51806904  0.66849012  0.80411770     0.11400
C1881       C  0.42620869  0.95503615  0.89461799    -0.03200
C1882       C  0.41173737  0.95323740  0.86613033    -0.05800
C1883       C  0.40563301  0.93368176  0.85369095    -0.20900
C1884       C  0.41392422  0.91568383  0.86945737     0.24800
C1885       C  0.42964890  0.91764218  0.89579691    -0.18500
C1886       C  0.43552831  0.93709711  0.90850992    -0.08400
C1887       C  0.40543195  0.89518895  0.85893090    -0.18700
C1888       C  0.40572445  0.87893226  0.88227917    -0.23500
C1889       C  0.39700651  0.85828299  0.87400470     0.26900
C1890       C  0.40424910  0.84142406  0.89449530    -0.20300
C1891       C  0.39607740  0.82176838  0.88940210    -0.09900
C1892       C  0.38020300  0.81843454  0.86387140    -0.10500
C1893       C  0.37287089  0.83529773  0.84318236    -0.03400
C1894       C  0.38120089  0.85508617  0.84817072    -0.18500
H1895       H  0.40430234  0.96685296  0.85500411     0.10600
H1896       H  0.39374286  0.93259571  0.83294234     0.10600
H1897       H  0.43722978  0.90422004  0.90722360     0.10300
H1898       H  0.44701331  0.93810157  0.93002132     0.11400
H1899       H  0.39804663  0.89382987  0.83215898     0.11500
H1900       H  0.41278170  0.88062906  0.90928792     0.13400
H1901       H  0.41630837  0.84347039  0.91471592     0.09900
H1902       H  0.40211923  0.80920232  0.90591780     0.12000
H1903       H  0.36057470  0.83325519  0.82347066     0.08600
H1904       H  0.37486020  0.86781850  0.83254337     0.11400
C1905       C  0.13971816  0.82531271  0.57310568    -0.03200
C1906       C  0.14132830  0.81252613  0.60448920    -0.05800
C1907       C  0.16065284  0.80710045  0.61822836    -0.20900
C1908       C  0.17847687  0.81438322  0.60069487     0.24800
C1909       C  0.17667447  0.82886693  0.57182957    -0.18500
C1910       C  0.15751475  0.83408429  0.55794209    -0.08400
C1911       C  0.19872724  0.80565318  0.61064596    -0.18700
C1912       C  0.21295890  0.80218590  0.58420634    -0.23500
C1913       C  0.23364924  0.79345161  0.59038073     0.26900
C1914       C  0.24812547  0.79574102  0.56185014    -0.20300
C1915       C  0.26778532  0.78765267  0.56538037    -0.09900
C1916       C  0.27342451  0.77680709  0.59748173    -0.10500
C1917       C  0.25890536  0.77427788  0.62604819    -0.03400
C1918       C  0.23917703  0.78256501  0.62262332    -0.18500
H1919       H  0.12779187  0.80567098  0.61683052     0.10600
H1920       H  0.16169908  0.79622565  0.64098967     0.10600
H1921       H  0.19011948  0.83558078  0.55894166     0.10300
H1922       H  0.15666298  0.84439605  0.53431944     0.11400
H1923       H  0.20138474  0.80120420  0.63920946     0.11500
H1924       H  0.20931296  0.80611887  0.55569136     0.13400
H1925       H  0.24423279  0.80392670  0.53660754     0.09900
H1926       H  0.27851843  0.78976463  0.54273811     0.12000
H1927       H  0.26279633  0.76592379  0.65108605     0.08600
H1928       H  0.22834487  0.78008429  0.64490527     0.11400
C1929       C  0.92748564  0.78655070  0.60096321    -0.03200
C1930       C  0.93023138  0.80666480  0.61484478    -0.05800
C1931       C  0.94981377  0.81536102  0.61663710    -0.20900
C1932       C  0.96704586  0.80393620  0.60561883     0.24800
C1933       C  0.96438246  0.78360294  0.59275515    -0.18500
C1934       C  0.94478742  0.77506092  0.59022745    -0.08400
C1935       C  0.98726962  0.81423324  0.60348952    -0.18700
C1936       C  0.00501516  0.80405692  0.60843480    -0.23500
C1937       C  0.02508190  0.81298341  0.59770493     0.26900
C1938       C  0.04291776  0.80665365  0.61610510    -0.20300
C1939       C  0.06224951  0.81241335  0.60266552    -0.09900
C1940       C  0.06400391  0.82411888  0.56997420    -0.10500
C1941       C  0.04611558  0.83111312  0.55247497    -0.03400
C1942       C  0.02686889  0.82569447  0.56625006    -0.18500
H1943       H  0.91718754  0.81590560  0.62326799     0.10600
H1944       H  0.95149943  0.83114245  0.62619356     0.10600
H1945       H  0.97732671  0.77459300  0.58313217     0.10300
H1946       H  0.94316550  0.75950259  0.57954975     0.11400
H1947       H  0.98753292  0.83054746  0.59630532     0.11500
H1948       H  0.00480622  0.78832883  0.61903217     0.13400
H1949       H  0.04189251  0.79671133  0.64021737     0.09900
H1950       H  0.07578097  0.80671940  0.61660480     0.12000
H1951       H  0.04699195  0.84018000  0.52725901     0.08600
H1952       H  0.01346171  0.83044353  0.55089246     0.11400
C1953       C  0.27443099  0.76775039  0.85582233    -0.03200
C1954       C  0.25935178  0.75559167  0.87321835    -0.05800
C1955       C  0.23874370  0.76136875  0.87196935    -0.20900
C1956       C  0.23271240  0.77953605  0.85374856     0.24800
C1957       C  0.24775790  0.79171804  0.83622925    -0.18500
C1958       C  0.26838684  0.78588271  0.83730576    -0.08400
C1959       C  0.21063854  0.78518451  0.85383781    -0.18700
C1960       C  0.20387725  0.80479172  0.85116450    -0.23500
C1961       C  0.18223468  0.81039562  0.85867268     0.26900
C1962       C  0.17820336  0.82842214  0.87895903    -0.20300
C1963       C  0.15836303  0.83282932  0.89111521    -0.09900
C1964       C  0.14205404  0.81965840  0.88215209    -0.10500
C1965       C  0.14575105  0.80241775  0.85945856    -0.03400
C1966       C  0.16577036  0.79768772  0.84805613    -0.18500
H1967       H  0.26342806  0.74148839  0.88760822     0.10600
H1968       H  0.22747414  0.75169249  0.88563517     0.10600
H1969       H  0.24367285  0.80556883  0.82115637     0.10300
H1970       H  0.27958669  0.79553781  0.82343623     0.11400
H1971       H  0.19970802  0.77301069  0.86014884     0.11500
H1972       H  0.21480765  0.81734854  0.84868079     0.13400
H1973       H  0.19060634  0.83851741  0.88717839     0.09900
H1974       H  0.15582438  0.84625436  0.90849404     0.12000
H1975       H  0.13338602  0.79202488  0.85233297     0.08600
H1976       H  0.16842206  0.78390382  0.83169973     0.11400
C1977       C  0.93395057  0.77176454  0.83375495    -0.03200
C1978       C  0.94903123  0.75878956  0.81835084    -0.05800
C1979       C  0.96973888  0.76454085  0.81908703    -0.20900
C1980       C  0.97577618  0.78348312  0.83467235     0.24800
C1981       C  0.96059294  0.79646057  0.84988465    -0.18500
C1982       C  0.94001274  0.79069294  0.84930359    -0.08400
C1983       C  0.99800991  0.78855086  0.83730084    -0.18700
C1984       C  0.00500415  0.80789777  0.84288098    -0.23500
C1985       C  0.02639048  0.81256452  0.85360800     0.26900
C1986       C  0.02957105  0.82822470  0.87975531    -0.20300
C1987       C  0.04910571  0.83210136  0.89344910    -0.09900
C1988       C  0.06604091  0.82074659  0.88061773    -0.10500
C1989       C  0.06315274  0.80590082  0.85269455    -0.03400
C1990       C  0.04338698  0.80166219  0.83951670    -0.18500
H1991       H  0.94488502  0.74402622  0.80640678     0.10600
H1992       H  0.98109980  0.75409537  0.80768394     0.10600
H1993       H  0.96444134  0.81080298  0.86351146     0.10300
H1994       H  0.92883167  0.80104020  0.86154006     0.11400
H1995       H  0.00881871  0.77578683  0.83654011     0.11500
H1996       H  0.99435949  0.82075898  0.84348575     0.13400
H1997       H  0.01674329  0.83692170  0.89081471     0.09900
H1998       H  0.05091001  0.84373086  0.91479116     0.12000
H1999       H  0.07597782  0.79693981  0.84239079     0.08600
H2000       H  0.04138950  0.78979012  0.81870935     0.11400
C2001       C  0.29396737  0.45446045  0.81527589    -0.03200
C2002       C  0.28362719  0.43677607  0.80281278    -0.05800
C2003       C  0.28890367  0.41725139  0.81604705    -0.20900
C2004       C  0.30500872  0.41489381  0.84121633     0.24800
C2005       C  0.31508829  0.43260276  0.85457969    -0.18500
C2006       C  0.30944415  0.45230361  0.84193507    -0.08400
C2007       C  0.31111315  0.39365081  0.85181624    -0.18700
C2008       C  0.33078090  0.38800651  0.85620258    -0.23500
C2009       C  0.33703669  0.36597021  0.85843065     0.26900
C2010       C  0.35574633  0.35994967  0.84253800    -0.20300
C2011       C  0.36132159  0.33908992  0.84115069    -0.09900
C2012       C  0.34843009  0.32382594  0.85625145    -0.10500
C2013       C  0.33007560  0.32996339  0.87357702    -0.03400
C2014       C  0.32441284  0.35080833  0.87461692    -0.18500
H2015       H  0.27155878  0.43803493  0.78241576     0.10600
H2016       H  0.28086584  0.40384636  0.80552449     0.10600
H2017       H  0.32734577  0.43121652  0.87454356     0.10300
H2018       H  0.31766271  0.46572710  0.85186980     0.11400
H2019       H  0.29934707  0.38180845  0.85075526     0.11500
H2020       H  0.34274838  0.39955966  0.85323795     0.13400
H2021       H  0.36579652  0.37136285  0.83013880     0.09900
H2022       H  0.37570292  0.33491979  0.82809078     0.12000
H2023       H  0.31992236  0.31862776  0.88590152     0.08600
H2024       H  0.31014522  0.35499836  0.88802388     0.11400
C2025       C  0.28795598  0.53068415  0.82066311    -0.03200
C2026       C  0.27407295  0.54663073  0.81269521    -0.05800
C2027       C  0.27696328  0.56637019  0.82726636    -0.20900
C2028       C  0.29412980  0.57066942  0.84907638     0.24800
C2029       C  0.30751455  0.55448304  0.85865920    -0.18500
C2030       C  0.30432311  0.53453653  0.84477677    -0.08400
C2031       C  0.29844029  0.59245512  0.85869372    -0.18700
C2032       C  0.31746540  0.60027638  0.85619754    -0.23500
C2033       C  0.32171456  0.62277792  0.85667231     0.26900
C2034       C  0.33847796  0.63022323  0.83625146    -0.20300
C2035       C  0.34264244  0.65137347  0.83470173    -0.09900
C2036       C  0.33029223  0.66553017  0.85410357    -0.10500
C2037       C  0.31365552  0.65804557  0.87504959    -0.03400
C2038       C  0.30937585  0.63687708  0.87629907    -0.18500
H2039       H  0.26126733  0.54393909  0.79432136     0.10600
H2040       H  0.26641459  0.57858961  0.81973709     0.10600
H2041       H  0.32068355  0.55736849  0.87604458     0.10300
H2042       H  0.31522385  0.52244423  0.85121344     0.11400
H2043       H  0.28545798  0.60279958  0.86193895     0.11500
H2044       H  0.33005914  0.59004309  0.84892181     0.13400
H2045       H  0.34822042  0.61964849  0.82096224     0.09900
H2046       H  0.35567314  0.65660275  0.81857495     0.12000
H2047       H  0.30393894  0.66854417  0.89053303     0.08600
H2048       H  0.29659281  0.63160734  0.89298103     0.11400
C2049       C  0.27811567  0.53325398  0.62983888    -0.03200
C2050       C  0.29095472  0.53741983  0.59944857    -0.05800
C2051       C  0.29381918  0.55781710  0.58741364    -0.20900
C2052       C  0.28387167  0.57425645  0.60551975     0.24800
C2053       C  0.26943604  0.56972880  0.63341123    -0.18500
C2054       C  0.26679813  0.54946493  0.64570488    -0.08400
C2055       C  0.29002116  0.59583103  0.59666388    -0.18700
C2056       C  0.28877733  0.61123971  0.62175557    -0.23500
C2057       C  0.29743788  0.63220378  0.61608697     0.26900
C2058       C  0.28969014  0.64854730  0.63750749    -0.20300
C2059       C  0.29833511  0.66824701  0.63517540    -0.09900
C2060       C  0.31514410  0.67199983  0.61164015    -0.10500
C2061       C  0.32289960  0.65563191  0.59010867    -0.03400
C2062       C  0.31417075  0.63592563  0.59232317    -0.18500
H2063       H  0.29978678  0.52515061  0.58665946     0.10600
H2064       H  0.30474045  0.56086520  0.56539794     0.10600
H2065       H  0.26060213  0.58179915  0.64668386     0.10300
H2066       H  0.25641535  0.54654685  0.66862018     0.11400
H2067       H  0.29724362  0.59862872  0.56998852     0.11500
H2068       H  0.28171082  0.60839177  0.64853285     0.13400
H2069       H  0.27696534  0.64602381  0.65633672     0.09900
H2070       H  0.29197036  0.68047519  0.65218596     0.12000
H2071       H  0.33589951  0.65796517  0.57185524     0.08600
H2072       H  0.32101397  0.62358265  0.57629505     0.11400
C2073       C  0.33788726  0.32220378  0.60842795    -0.03200
C2074       C  0.32635206  0.32777538  0.63982355    -0.05800
C2075       C  0.31780785  0.34743668  0.64280219    -0.20900
C2076       C  0.32037475  0.36206988  0.61444142     0.24800
C2077       C  0.33197353  0.35660844  0.58291104    -0.18500
C2078       C  0.34069283  0.33684710  0.58002702    -0.08400
C2079       C  0.31098879  0.38277249  0.62005593    -0.18700
C2080       C  0.30914254  0.39766880  0.59408891    -0.23500
C2081       C  0.29965735  0.41795124  0.60319080     0.26900
C2082       C  0.30690219  0.43610464  0.58618291    -0.20300
C2083       C  0.30008439  0.45554211  0.59836741    -0.09900
C2084       C  0.28593560  0.45694593  0.62768006    -0.10500
C2085       C  0.27748999  0.43876744  0.64242669    -0.03400
C2086       C  0.28407864  0.41949721  0.63006758    -0.18500
H2087       H  0.32395753  0.31694773  0.66234378     0.10600
H2088       H  0.30905637  0.35119797  0.66748422     0.10600
H2089       H  0.33460464  0.36747193  0.56063801     0.10300
H2090       H  0.34951021  0.33299466  0.55549609     0.11400
H2091       H  0.30533030  0.38590854  0.64783963     0.11500
H2092       H  0.31542633  0.39555271  0.56650281     0.13400
H2093       H  0.31864494  0.43527936  0.56494220     0.09900
H2094       H  0.30682571  0.46937970  0.58661772     0.12000
H2095       H  0.26627673  0.43946763  0.66462229     0.08600
H2096       H  0.27733855  0.40584187  0.64243136     0.11400
loop_ 
_geom_bond_atom_site_label_1 
_geom_bond_atom_site_label_2 
_geom_bond_distance 
_geom_bond_site_symmetry_2 
_ccdc_geom_bond_type 
C1            N2   1.360       .  A
C1            N6   1.364       .  A
C1         C1001   1.475       .  S
N2            C3   1.353       .  A
C3            N4   1.351       .  A
C3            C9   1.466       .  S
N4            C5   1.356       .  A
C5            N6   1.363       .  A
C5         C1036   1.474       .  S
C7            N8   1.357       .  A
C7           N12   1.362       .  A
C7          C953   1.476       .  S
N8            C9   1.354       .  A
C9           N10   1.354       .  A
N10          C11   1.359       .  A
C11          N12   1.363       .  A
C11         C977   1.472       .  S
C13          N14   1.364       .  A
C13          N18   1.357       .  A
C13         C940   1.478       .  S
N14          C15   1.364       .  A
C15          N16   1.359       .  A
C15         C916   1.474       .  S
N16          C17   1.355       .  A
C17          N18   1.352       .  A
C17        C1071   1.468       .  S
C19          N20   1.361       .  A
C19          N24   1.359       .  A
C19         C857   1.475       .  S
N20          C21   1.362       .  A
C21          N22   1.358       .  A
C21         C892   1.478       .  S
N22          C23   1.354   1_554  A
C23          N24   1.353   1_556  A
C23        C1065   1.468       .  S
O25          C41   1.276       .  A
O25         Zn31   2.023       .  S
C26         C988   1.480       .  S
C26          O42   1.276       .  A
C26          O39   1.275       .  A
O27          C40   1.275       .  A
O27         Cd34   2.084       .  S
O28          C46   1.276       .  A
O28         Cd37   2.069       .  S
O29          C43   1.273       .  A
O29         Cd33   2.075       .  S
O30          C41   1.274       .  A
O30         Cd33   2.071       .  S
Zn31         O42   2.022       .  S
Zn31         O44   2.034       .  S
Zn31         O36   1.946       .  S
O32          C43   1.274       .  A
O32         Cd37   2.082       .  S
Cd33         O35   2.047       .  S
Cd33         O36   1.996       .  S
Cd34         O38   2.090       .  S
Cd34         O47   2.079       .  S
Cd34         O36   2.011       .  S
O35          C45   1.273       .  A
O36         Cd37   2.002       .  S
Cd37         O39   2.064       .  S
O38          C45   1.278       .  A
C40          C49   1.468       .  S
C40          O44   1.275       .  A
C41         C809   1.484       .  S
C43          C68   1.466       .  S
C45         C844   1.482       .  S
C46         C905   1.484       .  S
C46          O47   1.277       .  A
O48          C64   1.274       .  A
O48         Zn54   2.016       .  S
C49          O65   1.275       .  A
C49          O62   1.274       .  A
O50          C63   1.277       .  A
O50         Cd57   2.082       .  S
O51          C69   1.276       .  A
O51         Cd60   2.068       .  S
O52          C66   1.275       .  A
O52         Cd56   2.064       .  S
O53          C64   1.275       .  A
O53         Cd56   2.069       .  S
Zn54         O65   2.033       .  S
Zn54         O67   2.008       .  S
Zn54         O59   1.944       .  S
O55          C66   1.275       .  A
O55         Cd60   2.074       .  S
Cd56         O58   2.078       .  S
Cd56         O59   1.996       .  S
Cd57         O61   2.083       .  S
Cd57         O70   2.075       .  S
Cd57         O59   2.007       .  S
O58        C1116   1.275       .  A
O59         Cd60   2.003       .  S
Cd60         O62   2.079       .  S
O61        C1116   1.275       .  A
C63         C761   1.481       .  S
C63          O67   1.274       .  A
C64         C796   1.478       .  S
C66         C868   1.480       .  S
C68        O1106   1.275       .  A
C68        O1109   1.275       .  A
C69        C1012   1.482       .  S
C69          O70   1.277       .  A
C71          N72   1.357       .  A
C71          N76   1.364       .  A
C71         C772   1.478       .  S
N72          C73   1.351       .  A
C73          N74   1.352       .  A
C73          C81   1.464       .  S
N74          C75   1.359       .  A
C75          N76   1.365       .  A
C75         C737   1.475       .  S
C77          N78   1.365       .  A
C77          N82   1.358       .  A
C77         C713   1.471       .  S
N78          C79   1.364       .  A
C79          N80   1.357       .  A
C79         C820   1.477       .  S
N80          C81   1.352       .  A
C81          N82   1.353       .  A
O83          C99   1.272       .  A
O83         Zn89   1.995       .  S
C84         C127   1.468       .  S
C84         O100   1.273       .  A
C84          O97   1.277       .  A
O85          C98   1.273       .  A
O85         Cd92   2.065       .  S
O86         C104   1.277       .  A
O86         Cd95   2.074       .  S
O87         C101   1.275       .  A
O87         Cd91   2.064       .  S
O88          C99   1.275       .  A
O88         Cd91   2.068       .  S
Zn89        O100   2.018       .  S
Zn89        O102   2.027       .  S
Zn89         O94   1.945       .  S
O90         C101   1.277       .  A
O90         Cd95   2.090       .  S
Cd91         O93   2.092       .  S
Cd91         O94   2.002       .  S
Cd92         O96   2.074       .  S
Cd92        O105   2.060       .  S
Cd92         O94   1.998       .  S
O93         C103   1.276       .  A
O94         Cd95   2.011       .  S
Cd95         O97   2.095       .  S
O96         C103   1.274       .  A
C98         C724   1.483       .  S
C98         O102   1.275       .  A
C99         C689   1.472       .  S
C101        C929   1.485       .  S
C103        C122   1.469       .  S
C104        C665   1.473       .  S
C104        O105   1.275       .  A
O106       C1170   1.276   1_554  A
O106       Zn112   2.037       .  S
C107        C748   1.483       .  S
C107        O123   1.275       .  A
C107        O120   1.275       .  A
O108        C121   1.275       .  A
O108       Cd115   2.065       .  S
O109        C127   1.274       .  A
O109       Cd118   2.082       .  S
O110        C124   1.277       .  A
O110       Cd114   2.086       .  S
O111       C1170   1.276   1_554  A
O111       Cd114   2.086       .  S
Zn112       O123   2.029       .  S
Zn112       O125   2.029       .  S
Zn112       O117   1.952       .  S
O113        C124   1.273       .  A
O113       Cd118   2.052       .  S
Cd114       O116   2.075       .  S
Cd114       O117   2.005       .  S
Cd115       O119   2.074       .  S
Cd115       O128   2.080       .  S
Cd115       O117   2.000       .  S
O116        C126   1.277       .  A
O117       Cd118   1.993       .  S
Cd118       O120   2.063       .  S
O119        C126   1.276       .  A
C121        C652   1.482       .  S
C121        O125   1.277       .  A
C122       O1154   1.276       .  A
C122       O1159   1.276       .  A
C124        C628   1.480       .  S
C126        C881   1.481       .  S
C127        O128   1.275       .  A
C129        N130   1.358       .  A
C129        N134   1.365       .  A
C129        C617   1.478       .  S
N130        C131   1.354       .  A
C131        N132   1.351       .  A
C131        C139   1.464       .  S
N132        C133   1.357       .  A
C133        N134   1.364       .  A
C133        C604   1.475       .  S
C135        N136   1.362       .  A
C135        N140   1.360       .  A
C135        C569   1.477       .  S
N136        C137   1.360       .  A
C137        N138   1.355       .  A
C137        C676   1.463       .  S
N138        C139   1.351       .  A
C139        N140   1.354       .  A
C141        N142   1.359       .  A
C141        N146   1.359       .  A
C141        C545   1.472       .  S
N142        C143   1.355       .  A
C143        N144   1.353   1_545  A
C143       C1197   1.466       .  S
N144        C145   1.357       .  A
C145        N146   1.359   1_565  A
C145        C700   1.473       .  S
C147        N148   1.358       .  A
C147        N152   1.362   1_565  A
C147        C641   1.473       .  S
N148        C149   1.353   1_564  A
C149        N150   1.353   1_556  A
C149       C1191   1.466       .  S
N150        C151   1.358       .  A
C151        N152   1.362       .  A
C151        C521   1.473       .  S
O153        C169   1.275       .  A
O153       Zn159   2.029       .  S
C154        C191   1.465       .  S
C154        O170   1.275       .  A
C154        O167   1.274       .  A
O155        C168   1.276       .  A
O155       Cd162   2.073       .  S
O156        C174   1.276       .  A
O156       Cd165   2.061       .  S
O157        C171   1.275       .  A
O157       Cd161   2.059       .  S
O158        C169   1.274       .  A
O158       Cd161   2.055       .  S
Zn159       O170   2.030       .  S
Zn159       O172   2.024       .  S
Zn159       O164   1.952       .  S
O160        C171   1.277       .  A
O160       Cd165   2.088       .  S
Cd161       O163   2.070       .  S
Cd161       O164   1.990       .  S
Cd162       O166   2.096       .  S
Cd162       O175   2.077       .  S
Cd162       O164   2.007       .  S
O163        C173   1.272       .  A
O164       Cd165   2.006       .  S
Cd165       O167   2.080       .  S
O166        C173   1.277       .  A
C168        C497   1.482       .  S
C168        O172   1.276       .  A
C169        C580   1.477       .  S
C171        C473   1.485       .  S
C173        C194   1.469       .  S
C174        C556   1.481       .  S
C174        O175   1.277       .  A
O176        C192   1.277       .  A
O176       Zn182   2.033       .  S
C177        C532   1.477       .  S
C177        O193   1.277       .  A
C177        O190   1.274       .  A
O178       C1239   1.271       .  A
O178       Cd185   2.055   1_556  S
O179        C197   1.276       .  A
O179       Cd188   2.077       .  S
O180        C194   1.277       .  A
O180       Cd184   2.095       .  S
O181        C192   1.275       .  A
O181       Cd184   2.069       .  S
Zn182       O193   2.033       .  S
Zn182       O195   2.052       .  S
Zn182       O187   1.957       .  S
O183        C194   1.274       .  A
O183       Cd188   2.075       .  S
Cd184       O186   2.097       .  S
Cd184       O187   2.008       .  S
Cd185       O189   2.052       .  S
Cd185       O198   2.074       .  S
Cd185       O187   1.992       .  S
O186        C196   1.280       .  A
O187       Cd188   1.997       .  S
Cd188       O190   2.056       .  S
O189        C196   1.274       .  A
C191       O1226   1.271       .  A
C191       O1243   1.277       .  A
C192        C449   1.484       .  S
O195       C1239   1.277   1_554  A
C196        C593   1.484       .  S
C197        C425   1.481       .  S
C197        O198   1.274       .  A
C199        N200   1.359       .  A
C199        N204   1.366       .  A
C199        C401   1.476       .  S
N200        C201   1.353       .  A
C201        N202   1.351       .  A
C201        C209   1.466       .  S
N202        C203   1.357       .  A
C203        N204   1.365       .  A
C203        C436   1.477       .  S
C205        N206   1.362       .  A
C205        N210   1.358       .  A
C205        C484   1.474       .  S
N206        C207   1.363       .  A
C207        N208   1.358       .  A
C207        C388   1.474       .  S
N208        C209   1.352       .  A
C209        N210   1.354       .  A
C211        N212   1.363   1_545  A
C211        N216   1.359       .  A
C211        C353   1.478       .  S
N212        C213   1.362       .  A
C213        N214   1.357       .  A
C213        C833   1.475       .  S
N214        C215   1.354       .  A
C215        N216   1.353   1_565  A
C215       C1267   1.465       .  S
C217        N218   1.357       .  A
C217        N222   1.364       .  A
C217        C785   1.477       .  S
N218        C219   1.352       .  A
C219        N220   1.354   1_565  A
C219       C1263   1.465   1_554  S
N220        C221   1.359       .  A
C221        N222   1.364   1_545  A
C221        C329   1.476       .  S
C223        N224   1.364       .  A
C223        N228   1.358       .  A
C223        C508   1.474       .  S
N224        C225   1.363       .  A
C225        N226   1.357       .  A
C225        C316   1.477       .  S
N226        C227   1.353       .  A
C227        N228   1.353       .  A
C227       C1281   1.465       .  S
C229        N230   1.364       .  A
C229        N234   1.357       .  A
C229        C281   1.473       .  S
N230        C231   1.364       .  A
C231        N232   1.358       .  A
C231        C460   1.473       .  S
N232        C233   1.352   1_554  A
C233        N234   1.352   1_556  A
C233       C1275   1.465       .  S
O235        C251   1.275       .  A
O235       Zn241   2.023       .  S
C236        C279   1.470       .  S
C236        O252   1.276       .  A
C236        O249   1.275       .  A
O237        C250   1.274       .  A
O237       Cd244   2.068       .  S
O238        C256   1.277       .  A
O238       Cd247   2.082       .  S
O239        C253   1.277       .  A
O239       Cd243   2.076       .  S
O240        C251   1.275       .  A
O240       Cd243   2.061       .  S
Zn241       O252   2.041       .  S
Zn241       O254   2.014       .  S
Zn241       O246   1.950       .  S
O242        C253   1.275       .  A
O242       Cd247   2.069       .  S
Cd243       O245   2.091       .  S
Cd243       O246   2.004       .  S
Cd244       O248   2.069       .  S
Cd244       O257   2.067       .  S
Cd244       O246   2.001       .  S
O245        C255   1.276       .  A
O246       Cd247   2.004       .  S
Cd247       O249   2.081       .  S
O248        C255   1.273       .  A
C250        C364   1.479       .  S
C250        O254   1.275       .  A
C251        C377   1.480       .  S
C253        C964   1.483       .  S
C255        C274   1.466       .  S
C256        C305   1.481       .  S
C256        O257   1.275       .  A
O258        C274   1.276       .  A
O258       Zn264   2.051       .  S
C259        C340   1.481       .  S
C259        O275   1.276       .  A
C259        O272   1.276       .  A
O260        C273   1.277       .  A
O260       Cd267   2.077       .  S
O261       C1327   1.277   1_554  A
O261       Cd270   2.094       .  S
O262        C276   1.273       .  A
O262       Cd266   2.054       .  S
O263        C274   1.271       .  A
O263       Cd266   2.059       .  S
Zn264       O275   2.027       .  S
Zn264       O277   2.029       .  S
Zn264       O269   1.953       .  S
O265        C276   1.277       .  A
O265       Cd270   2.088       .  S
Cd266       O268   2.053       .  S
Cd266       O269   1.990       .  S
Cd267       O271   2.087       .  S
Cd267       O280   2.081       .  S
Cd267       O269   2.006       .  S
O268        C278   1.273       .  A
O269       Cd270   2.009       .  S
Cd270       O272   2.074       .  S
O271        C278   1.277       .  A
C273        C412   1.483       .  S
C273        O277   1.277       .  A
C276        C292   1.484       .  S
C278       C1025   1.482       .  S
C279       O1309   1.277       .  A
C279       O1328   1.276       .  A
O280       C1327   1.276   1_554  A
C281        C282   1.403       .  A
C281        C286   1.403       .  A
C282        C283   1.393       .  A
C282        H295   1.084       .  S
C283        C284   1.402       .  A
C283        H296   1.084       .  S
C284        C285   1.412       .  A
C284        C287   1.487       .  S
C285        C286   1.403       .  A
C285        H297   1.081       .  S
C286        H298   1.083       .  S
C287        C288   1.345       .  D
C287        H299   1.086       .  S
C288        C289   1.485       .  S
C288        H300   1.084       .  S
C289        C290   1.400       .  A
C289        C294   1.409       .  A
C290        C291   1.396       .  A
C290        H301   1.083       .  S
C291        C292   1.408       .  A
C291        H302   1.083       .  S
C292        C293   1.405       .  A
C293        C294   1.400       .  A
C293        H303   1.083       .  S
C294        H304   1.082       .  S
C305        C306   1.406       .  A
C305        C310   1.406       .  A
C306        C307   1.397       .  A
C306        H319   1.083       .  S
C307        C308   1.402       .  A
C307        H320   1.084       .  S
C308        C309   1.407       .  A
C308        C311   1.484       .  S
C309        C310   1.400       .  A
C309        H321   1.082       .  S
C310        H322   1.083       .  S
C311        C312   1.346       .  D
C311        H323   1.086       .  S
C312        C313   1.485       .  S
C312        H324   1.086       .  S
C313        C314   1.405       .  A
C313        C318   1.406       .  A
C314        C315   1.402       .  A
C314        H325   1.083       .  S
C315        C316   1.404       .  A
C315        H326   1.083       .  S
C316        C317   1.404       .  A
C317        C318   1.394       .  A
C317        H327   1.083       .  S
C318        H328   1.082       .  S
C329        C330   1.404       .  A
C329        C334   1.402       .  A
C330        C331   1.404       .  A
C330        H343   1.083       .  S
C331        C332   1.407       .  A
C331        H344   1.083       .  S
C332        C333   1.407       .  A
C332        C335   1.489       .  S
C333        C334   1.394       .  A
C333        H345   1.081       .  S
C334        H346   1.084       .  S
C335        C336   1.348       .  D
C335        H347   1.085       .  S
C336        C337   1.487       .  S
C336        H348   1.086       .  S
C337        C338   1.404       .  A
C337        C342   1.408       .  A
C338        C339   1.398       .  A
C338        H349   1.084       .  S
C339        C340   1.405       .  A
C339        H350   1.083       .  S
C340        C341   1.406       .  A
C341        C342   1.400       .  A
C341        H351   1.083       .  S
C342        H352   1.081       .  S
C353        C354   1.405       .  A
C353        C358   1.404       .  A
C354        C355   1.401       .  A
C354        H367   1.083       .  S
C355        C356   1.404       .  A
C355        H368   1.083       .  S
C356        C357   1.406       .  A
C356        C359   1.485       .  S
C357        C358   1.393       .  A
C357        H369   1.082       .  S
C358        H370   1.083       .  S
C359        C360   1.347       .  D
C359        H371   1.083       .  S
C360        C361   1.486       .  S
C360        H372   1.086       .  S
C361        C362   1.403       .  A
C361        C366   1.409       .  A
C362        C363   1.394       .  A
C362        H373   1.084       .  S
C363        C364   1.404       .  A
C363        H374   1.083       .  S
C364        C365   1.406       .  A
C365        C366   1.400       .  A
C365        H375   1.083       .  S
C366        H376   1.080       .  S
C377        C378   1.407       .  A
C377        C382   1.404       .  A
C378        C379   1.400       .  A
C378        H391   1.083       .  S
C379        C380   1.403       .  A
C379        H392   1.083       .  S
C380        C381   1.408       .  A
C380        C383   1.486       .  S
C381        C382   1.394       .  A
C381        H393   1.081       .  S
C382        H394   1.083       .  S
C383        C384   1.346       .  D
C383        H395   1.086       .  S
C384        C385   1.478       .  S
C384        H396   1.085       .  S
C385        C386   1.400       .  A
C385        C390   1.407       .  A
C386        C387   1.392       .  A
C386        H397   1.084       .  S
C387        C388   1.404       .  A
C387        H398   1.084       .  S
C388        C389   1.405       .  A
C389        C390   1.402       .  A
C389        H399   1.083       .  S
C390        H400   1.083       .  S
C401        C402   1.403       .  A
C401        C406   1.403       .  A
C402        C403   1.404       .  A
C402        H415   1.083       .  S
C403        C404   1.407       .  A
C403        H416   1.083       .  S
C404        C405   1.407       .  A
C404        C407   1.489       .  S
C405        C406   1.395       .  A
C405        H417   1.082       .  S
C406        H418   1.083       .  S
C407        C408   1.348       .  D
C407        H419   1.086       .  S
C408        C409   1.487       .  S
C408        H420   1.086       .  S
C409        C410   1.403       .  A
C409        C414   1.408       .  A
C410        C411   1.399       .  A
C410        H421   1.083       .  S
C411        C412   1.406       .  A
C411        H422   1.083       .  S
C412        C413   1.406       .  A
C413        C414   1.400       .  A
C413        H423   1.083       .  S
C414        H424   1.082       .  S
C425        C426   1.408       .  A
C425        C430   1.403       .  A
C426        C427   1.402       .  A
C426        H439   1.083       .  S
C427        C428   1.402       .  A
C427        H440   1.083       .  S
C428        C429   1.407       .  A
C428        C431   1.486       .  S
C429        C430   1.397       .  A
C429        H441   1.083       .  S
C430        H442   1.083       .  S
C431        C432   1.345       .  D
C431        H443   1.085       .  S
C432        C433   1.488       .  S
C432        H444   1.088       .  S
C433        C434   1.402       .  A
C433        C438   1.412       .  A
C434        C435   1.392       .  A
C434        H445   1.083       .  S
C435        C436   1.403       .  A
C435        H446   1.084       .  S
C436        C437   1.404       .  A
C437        C438   1.406       .  A
C437        H447   1.083       .  S
C438        H448   1.081       .  S
C449        C450   1.405       .  A
C449        C454   1.407       .  A
C450        C451   1.398       .  A
C450        H463   1.083       .  S
C451        C452   1.405       .  A
C451        H464   1.084       .  S
C452        C453   1.408       .  A
C452        C455   1.489   1_655  S
C453        C454   1.399       .  A
C453        H465   1.080       .  S
C454        H466   1.083       .  S
C455        C456   1.351       .  D
C455        H467   1.085       .  S
C456        C457   1.488       .  S
C456        H468   1.084       .  S
C457        C458   1.407       .  A
C457        C462   1.406       .  A
C458        C459   1.403       .  A
C458        H469   1.083       .  S
C459        C460   1.403       .  A
C459        H470   1.083       .  S
C460        C461   1.403       .  A
C461        C462   1.394       .  A
C461        H471   1.084       .  S
C462        H472   1.082       .  S
C473        C474   1.405       .  A
C473        C478   1.408       .  A
C474        C475   1.393       .  A
C474        H487   1.083       .  S
C475        C476   1.402       .  A
C475        H488   1.084       .  S
C476        C477   1.408       .  A
C476        C479   1.486       .  S
C477        C478   1.405       .  A
C477        H489   1.081       .  S
C478        H490   1.083       .  S
C479        C480   1.349       .  D
C479        H491   1.085       .  S
C480        C481   1.491       .  S
C480        H492   1.085       .  S
C481        C482   1.407       .  A
C481        C486   1.408       .  A
C482        C483   1.404       .  A
C482        H493   1.083       .  S
C483        C484   1.404       .  A
C483        H494   1.083       .  S
C484        C485   1.401       .  A
C485        C486   1.393       .  A
C485        H495   1.084       .  S
C486        H496   1.081       .  S
C497        C498   1.405       .  A
C497        C502   1.407       .  A
C498        C499   1.397       .  A
C498        H511   1.083       .  S
C499        C500   1.402       .  A
C499        H512   1.083       .  S
C500        C501   1.407       .  A
C500        C503   1.484   1_655  S
C501        C502   1.400       .  A
C501        H513   1.082       .  S
C502        H514   1.083       .  S
C503        C504   1.345       .  D
C503        H515   1.087       .  S
C504        C505   1.482       .  S
C504        H516   1.086       .  S
C505        C506   1.401       .  A
C505        C510   1.408       .  A
C506        C507   1.395       .  A
C506        H517   1.083       .  S
C507        C508   1.404       .  A
C507        H518   1.084       .  S
C508        C509   1.404       .  A
C509        C510   1.401       .  A
C509        H519   1.083       .  S
C510        H520   1.083       .  S
C521        C522   1.403       .  A
C521        C526   1.403       .  A
C522        C523   1.400       .  A
C522        H535   1.083       .  S
C523        C524   1.405       .  A
C523        H536   1.083       .  S
C524        C525   1.406       .  A
C524        C527   1.482       .  S
C525        C526   1.393       .  A
C525        H537   1.082       .  S
C526        H538   1.084       .  S
C527        C528   1.344       .  D
C527        H539   1.087       .  S
C528        C529   1.479       .  S
C528        H540   1.086       .  S
C529        C530   1.400       .  A
C529        C534   1.408       .  A
C530        C531   1.396       .  A
C530        H541   1.083       .  S
C531        C532   1.406       .  A
C531        H542   1.083       .  S
C532        C533   1.404       .  A
C533        C534   1.399       .  A
C533        H543   1.083       .  S
C534        H544   1.082       .  S
C545        C546   1.402       .  A
C545        C550   1.405       .  A
C546        C547   1.393       .  A
C546        H559   1.083       .  S
C547        C548   1.402       .  A
C547        H560   1.084       .  S
C548        C549   1.408       .  A
C548        C551   1.480       .  S
C549        C550   1.400       .  A
C549        H561   1.082       .  S
C550        H562   1.083       .  S
C551        C552   1.346       .  D
C551        H563   1.086       .  S
C552        C553   1.483       .  S
C552        H564   1.085       .  S
C553        C554   1.403       .  A
C553        C558   1.407       .  A
C554        C555   1.400       .  A
C554        H565   1.083       .  S
C555        C556   1.407       .  A
C555        H566   1.083       .  S
C556        C557   1.405       .  A
C557        C558   1.394       .  A
C557        H567   1.083       .  S
C558        H568   1.082       .  S
C569        C570   1.406       .  A
C569        C574   1.404       .  A
C570        C571   1.402       .  A
C570        H583   1.083       .  S
C571        C572   1.404       .  A
C571        H584   1.083       .  S
C572        C573   1.406       .  A
C572        C575   1.485       .  S
C573        C574   1.393       .  A
C573        H585   1.082       .  S
C574        H586   1.083       .  S
C575        C576   1.347       .  D
C575        H587   1.085       .  S
C576        C577   1.481       .  S
C576        H588   1.086       .  S
C577        C578   1.402       .  A
C577        C582   1.407       .  A
C578        C579   1.392       .  A
C578        H589   1.084       .  S
C579        C580   1.403       .  A
C579        H590   1.083       .  S
C580        C581   1.406       .  A
C581        C582   1.403       .  A
C581        H591   1.083       .  S
C582        H592   1.082       .  S
C593        C594   1.407       .  A
C593        C598   1.405       .  A
C594        C595   1.395       .  A
C594        H607   1.083       .  S
C595        C596   1.401       .  A
C595        H608   1.084       .  S
C596        C597   1.411       .  A
C596        C599   1.489       .  S
C597        C598   1.402       .  A
C597        H609   1.080       .  S
C598        H610   1.083       .  S
C599        C600   1.346       .  D
C599        H611   1.085       .  S
C600        C601   1.487       .  S
C600        H612   1.084       .  S
C601        C602   1.401       .  A
C601        C606   1.411       .  A
C602        C603   1.394       .  A
C602        H613   1.083       .  S
C603        C604   1.404       .  A
C603        H614   1.084       .  S
C604        C605   1.403       .  A
C605        C606   1.403       .  A
C605        H615   1.083       .  S
C606        H616   1.082       .  S
C617        C618   1.404       .  A
C617        C622   1.405       .  A
C618        C619   1.403       .  A
C618        H631   1.083       .  S
C619        C620   1.405       .  A
C619        H632   1.083       .  S
C620        C621   1.405       .  A
C620        C623   1.484       .  S
C621        C622   1.394       .  A
C621        H633   1.082       .  S
C622        H634   1.083       .  S
C623        C624   1.347       .  D
C623        H635   1.086       .  S
C624        C625   1.483       .  S
C624        H636   1.086       .  S
C625        C626   1.404       .  A
C625        C630   1.405       .  A
C626        C627   1.400       .  A
C626        H637   1.083       .  S
C627        C628   1.405       .  A
C627        H638   1.083       .  S
C628        C629   1.406       .  A
C629        C630   1.396       .  A
C629        H639   1.083       .  S
C630        H640   1.082       .  S
C641        C642   1.404       .  A
C641        C646   1.402       .  A
C642        C643   1.402       .  A
C642        H655   1.083       .  S
C643        C644   1.406       .  A
C643        H656   1.083       .  S
C644        C645   1.407       .  A
C644        C647   1.487       .  S
C645        C646   1.393       .  A
C645        H657   1.082       .  S
C646        H658   1.084       .  S
C647        C648   1.350       .  D
C647        H659   1.083       .  S
C648        C649   1.487       .  S
C648        H660   1.085       .  S
C649        C650   1.405       .  A
C649        C654   1.407       .  A
C650        C651   1.396       .  A
C650        H661   1.083       .  S
C651        C652   1.404       .  A
C651        H662   1.083       .  S
C652        C653   1.407       .  A
C653        C654   1.399       .  A
C653        H663   1.083       .  S
C654        H664   1.080       .  S
C665        C666   1.404       .  A
C665        C670   1.404       .  A
C666        C667   1.395       .  A
C666        H679   1.083       .  S
C667        C668   1.402       .  A
C667        H680   1.084       .  S
C668        C669   1.408       .  A
C668        C671   1.479       .  S
C669        C670   1.398       .  A
C669        H681   1.082       .  S
C670        H682   1.083       .  S
C671        C672   1.345       .  D
C671        H683   1.086       .  S
C672        C673   1.481       .  S
C672        H684   1.086       .  S
C673        C674   1.406       .  A
C673        C678   1.406       .  A
C674        C675   1.402       .  A
C674        H685   1.083       .  S
C675        C676   1.402       .  A
C675        H686   1.083       .  S
C676        C677   1.399       .  A
C677        C678   1.389       .  A
C677        H687   1.084       .  S
C678        H688   1.082       .  S
C689        C690   1.405       .  A
C689        C694   1.403       .  A
C690        C691   1.394       .  A
C690        H703   1.083       .  S
C691        C692   1.401       .  A
C691        H704   1.084       .  S
C692        C693   1.407       .  A
C692        C695   1.476       .  S
C693        C694   1.396       .  A
C693        H705   1.082       .  S
C694        H706   1.083       .  S
C695        C696   1.343       .  D
C695        H707   1.087       .  S
C696        C697   1.478       .  S
C696        H708   1.086       .  S
C697        C698   1.403       .  A
C697        C702   1.405       .  A
C698        C699   1.399       .  A
C698        H709   1.083       .  S
C699        C700   1.405       .  A
C699        H710   1.083       .  S
C700        C701   1.403       .  A
C701        C702   1.391       .  A
C701        H711   1.083       .  S
C702        H712   1.082       .  S
C713        C714   1.402       .  A
C713        C718   1.403       .  A
C714        C715   1.396       .  A
C714        H727   1.084       .  S
C715        C716   1.402       .  A
C715        H728   1.083       .  S
C716        C717   1.408       .  A
C716        C719   1.482       .  S
C717        C718   1.403       .  A
C717        H729   1.083       .  S
C718        H730   1.083       .  S
C719        C720   1.346       .  D
C719        H731   1.086       .  S
C720        C721   1.486       .  S
C720        H732   1.087       .  S
C721        C722   1.403       .  A
C721        C726   1.406       .  A
C722        C723   1.398       .  A
C722        H733   1.083       .  S
C723        C724   1.406       .  A
C723        H734   1.083       .  S
C724        C725   1.407       .  A
C725        C726   1.399       .  A
C725        H735   1.083       .  S
C726        H736   1.082       .  S
C737        C738   1.403       .  A
C737        C742   1.403       .  A
C738        C739   1.403       .  A
C738        H751   1.083       .  S
C739        C740   1.407       .  A
C739        H752   1.083       .  S
C740        C741   1.407       .  A
C740        C743   1.490       .  S
C741        C742   1.393       .  A
C741        H753   1.081       .  S
C742        H754   1.084       .  S
C743        C744   1.350       .  D
C743        H755   1.084       .  S
C744        C745   1.486       .  S
C744        H756   1.084       .  S
C745        C746   1.403       .  A
C745        C750   1.408       .  A
C746        C747   1.394       .  A
C746        H757   1.084       .  S
C747        C748   1.404       .  A
C747        H758   1.083       .  S
C748        C749   1.407       .  A
C749        C750   1.402       .  A
C749        H759   1.083       .  S
C750        H760   1.081       .  S
C761        C762   1.404       .  A
C761        C766   1.407       .  A
C762        C763   1.399       .  A
C762        H775   1.083       .  S
C763        C764   1.404       .  A
C763        H776   1.083       .  S
C764        C765   1.405       .  A
C764        C767   1.482       .  S
C765        C766   1.398       .  A
C765        H777   1.082       .  S
C766        H778   1.083       .  S
C767        C768   1.348       .  D
C767        H779   1.086       .  S
C768        C769   1.485       .  S
C768        H780   1.086       .  S
C769        C770   1.407       .  A
C769        C774   1.404       .  A
C770        C771   1.405       .  A
C770        H781   1.083       .  S
C771        C772   1.405       .  A
C771        H782   1.083       .  S
C772        C773   1.404       .  A
C773        C774   1.391       .  A
C773        H783   1.083       .  S
C774        H784   1.082       .  S
C785        C786   1.406       .  A
C785        C790   1.404       .  A
C786        C787   1.394       .  A
C786        H799   1.084       .  S
C787        C788   1.400       .  A
C787        H800   1.083       .  S
C788        C789   1.408       .  A
C788        C791   1.480       .  S
C789        C790   1.402       .  A
C789        H801   1.083       .  S
C790        H802   1.083       .  S
C791        C792   1.345       .  D
C791        H803   1.086       .  S
C792        C793   1.483       .  S
C792        H804   1.087       .  S
C793        C794   1.403       .  A
C793        C798   1.407       .  A
C794        C795   1.396       .  A
C794        H805   1.083       .  S
C795        C796   1.404       .  A
C795        H806   1.083       .  S
C796        C797   1.406       .  A
C797        C798   1.399       .  A
C797        H807   1.083       .  S
C798        H808   1.082       .  S
C809        C810   1.404       .  A
C809        C814   1.408       .  A
C810        C811   1.396       .  A
C810        H823   1.083       .  S
C811        C812   1.404       .  A
C811        H824   1.084       .  S
C812        C813   1.408       .  A
C812        C815   1.489       .  S
C813        C814   1.402       .  A
C813        H825   1.080       .  S
C814        H826   1.083       .  S
C815        C816   1.351       .  D
C815        H827   1.085       .  S
C816        C817   1.491       .  S
C816        H828   1.084       .  S
C817        C818   1.407       .  A
C817        C822   1.407       .  A
C818        C819   1.404       .  A
C818        H829   1.083       .  S
C819        C820   1.404       .  A
C819        H830   1.083       .  S
C820        C821   1.404       .  A
C821        C822   1.394       .  A
C821        H831   1.084       .  S
C822        H832   1.081       .  S
C833        C834   1.404       .  A
C833        C838   1.403       .  A
C834        C835   1.401       .  A
C834        H847   1.083       .  S
C835        C836   1.405       .  A
C835        H848   1.083       .  S
C836        C837   1.408       .  A
C836        C839   1.487       .  S
C837        C838   1.394       .  A
C837        H849   1.081       .  S
C838        H850   1.084       .  S
C839        C840   1.347       .  D
C839        H851   1.085       .  S
C840        C841   1.483       .  S
C840        H852   1.085       .  S
C841        C842   1.400       .  A
C841        C846   1.409       .  A
C842        C843   1.392       .  A
C842        H853   1.084       .  S
C843        C844   1.406       .  A
C843        H854   1.083       .  S
C844        C845   1.406       .  A
C845        C846   1.403       .  A
C845        H855   1.083       .  S
C846        H856   1.081       .  S
C857        C858   1.406       .  A
C857        C862   1.402       .  A
C858        C859   1.402       .  A
C858        H871   1.083       .  S
C859        C860   1.404       .  A
C859        H872   1.083       .  S
C860        C861   1.406       .  A
C860        C863   1.483       .  S
C861        C862   1.391       .  A
C861        H873   1.083       .  S
C862        H874   1.083       .  S
C863        C864   1.348       .  D
C863        H875   1.084       .  S
C864        C865   1.482       .  S
C864        H876   1.087       .  S
C865        C866   1.402       .  A
C865        C870   1.408       .  A
C866        C867   1.392       .  A
C866        H877   1.084       .  S
C867        C868   1.404       .  A
C867        H878   1.083       .  S
C868        C869   1.407       .  A
C869        C870   1.401       .  A
C869        H879   1.083       .  S
C870        H880   1.080       .  S
C881        C882   1.406       .  A
C881        C886   1.405       .  A
C882        C883   1.399       .  A
C882        H895   1.083       .  S
C883        C884   1.402       .  A
C883        H896   1.083       .  S
C884        C885   1.406       .  A
C884        C887   1.481       .  S
C885        C886   1.398       .  A
C885        H897   1.083       .  S
C886        H898   1.083       .  S
C887        C888   1.345   1_655  D
C887        H899   1.087       .  S
C888        C889   1.482       .  S
C888        H900   1.087       .  S
C889        C890   1.404       .  A
C889        C894   1.405       .  A
C890        C891   1.401       .  A
C890        H901   1.083       .  S
C891        C892   1.405       .  A
C891        H902   1.083       .  S
C892        C893   1.405       .  A
C893        C894   1.395       .  A
C893        H903   1.083       .  S
C894        H904   1.082       .  S
C905        C906   1.406       .  A
C905        C910   1.407       .  A
C906        C907   1.397       .  A
C906        H919   1.083       .  S
C907        C908   1.403       .  A
C907        H920   1.083       .  S
C908        C909   1.407       .  A
C908        C911   1.487       .  S
C909        C910   1.400       .  A
C909        H921   1.082       .  S
C910        H922   1.083       .  S
C911        C912   1.346       .  D
C911        H923   1.087       .  S
C912        C913   1.483       .  S
C912        H924   1.085       .  S
C913        C914   1.401       .  A
C913        C918   1.408       .  A
C914        C915   1.395       .  A
C914        H925   1.083       .  S
C915        C916   1.403       .  A
C915        H926   1.084       .  S
C916        C917   1.404       .  A
C917        C918   1.403       .  A
C917        H927   1.083       .  S
C918        H928   1.083       .  S
C929        C930   1.406       .  A
C929        C934   1.405       .  A
C930        C931   1.403       .  A
C930        H943   1.083       .  S
C931        C932   1.406       .  A
C931        H944   1.083       .  S
C932        C933   1.409       .  A
C932        C935   1.492       .  S
C933        C934   1.395       .  A
C933        H945   1.080       .  S
C934        H946   1.083       .  S
C935        C936   1.348   1_655  D
C935        H947   1.086   1_655  S
C936        C937   1.482       .  S
C936        H948   1.084   1_455  S
C937        C938   1.401       .  A
C937        C942   1.408       .  A
C938        C939   1.393       .  A
C938        H949   1.084       .  S
C939        C940   1.404       .  A
C939        H950   1.083       .  S
C940        C941   1.405       .  A
C941        C942   1.405       .  A
C941        H951   1.083       .  S
C942        H952   1.082       .  S
C953        C954   1.404       .  A
C953        C958   1.405       .  A
C954        C955   1.393       .  A
C954        H967   1.084       .  S
C955        C956   1.401       .  A
C955        H968   1.084       .  S
C956        C957   1.408       .  A
C956        C959   1.481       .  S
C957        C958   1.403       .  A
C957        H969   1.083       .  S
C958        H970   1.083       .  S
C959        C960   1.345       .  D
C959        H971   1.086       .  S
C960        C961   1.485       .  S
C960        H972   1.087       .  S
C961        C962   1.403       .  A
C961        C966   1.407       .  A
C962        C963   1.398       .  A
C962        H973   1.083       .  S
C963        C964   1.406       .  A
C963        H974   1.083       .  S
C964        C965   1.407       .  A
C965        C966   1.398       .  A
C965        H975   1.083       .  S
C966        H976   1.082       .  S
C977        C978   1.403       .  A
C977        C982   1.403       .  A
C978        C979   1.394       .  A
C978        H991   1.084       .  S
C979        C980   1.400       .  A
C979        H992   1.083       .  S
C980        C981   1.407       .  A
C980        C983   1.479       .  S
C981        C982   1.400       .  A
C981        H993   1.083       .  S
C982        H994   1.083       .  S
C983        C984   1.344       .  D
C983        H995   1.086       .  S
C984        C985   1.482       .  S
C984        H996   1.087       .  S
C985        C986   1.402       .  A
C985        C990   1.406       .  A
C986        C987   1.396       .  A
C986        H997   1.083       .  S
C987        C988   1.405       .  A
C987        H998   1.083       .  S
C988        C989   1.407       .  A
C989        C990   1.398       .  A
C989        H999   1.083       .  S
C990       H1000   1.082       .  S
C1001      C1002   1.403       .  A
C1001      C1006   1.403       .  A
C1002      C1003   1.401       .  A
C1002      H1015   1.083       .  S
C1003      C1004   1.406       .  A
C1003      H1016   1.083       .  S
C1004      C1005   1.407       .  A
C1004      C1007   1.487       .  S
C1005      C1006   1.394       .  A
C1005      H1017   1.081       .  S
C1006      H1018   1.083       .  S
C1007      C1008   1.349       .  D
C1007      H1019   1.085       .  S
C1008      C1009   1.483       .  S
C1008      H1020   1.084       .  S
C1009      C1010   1.403       .  A
C1009      C1014   1.407       .  A
C1010      C1011   1.396       .  A
C1010      H1021   1.083       .  S
C1011      C1012   1.406       .  A
C1011      H1022   1.083       .  S
C1012      C1013   1.406       .  A
C1013      C1014   1.399       .  A
C1013      H1023   1.083       .  S
C1014      H1024   1.081       .  S
C1025      C1026   1.405       .  A
C1025      C1030   1.406       .  A
C1026      C1027   1.393       .  A
C1026      H1039   1.083       .  S
C1027      C1028   1.403       .  A
C1027      H1040   1.084       .  S
C1028      C1029   1.409       .  A
C1028      C1031   1.486       .  S
C1029      C1030   1.403       .  A
C1029      H1041   1.080       .  S
C1030      H1042   1.083       .  S
C1031      C1032   1.349       .  D
C1031      H1043   1.086       .  S
C1032      C1033   1.487       .  S
C1032      H1044   1.083       .  S
C1033      C1034   1.406       .  A
C1033      C1038   1.406       .  A
C1034      C1035   1.404       .  A
C1034      H1045   1.083       .  S
C1035      C1036   1.404       .  A
C1035      H1046   1.083       .  S
C1036      C1037   1.403       .  A
C1037      C1038   1.391       .  A
C1037      H1047   1.084       .  S
C1038      H1048   1.082       .  S
C1049      N1050   1.360       .  A
C1049      N1054   1.364       .  A
C1049      C2049   1.475       .  S
N1050      C1051   1.353       .  A
C1051      N1052   1.351       .  A
C1051      C1057   1.466       .  S
N1052      C1053   1.356       .  A
C1053      N1054   1.363       .  A
C1053      C2084   1.474       .  S
C1055      N1056   1.357       .  A
C1055      N1060   1.362       .  A
C1055      C2001   1.476       .  S
N1056      C1057   1.354       .  A
C1057      N1058   1.354       .  A
N1058      C1059   1.359       .  A
C1059      N1060   1.363       .  A
C1059      C2025   1.472       .  S
C1061      N1062   1.364       .  A
C1061      N1066   1.357       .  A
C1061      C1988   1.478       .  S
N1062      C1063   1.364       .  A
C1063      N1064   1.359       .  A
C1063      C1964   1.474       .  S
N1064      C1065   1.355       .  A
C1065      N1066   1.352       .  A
C1067      N1068   1.361       .  A
C1067      N1072   1.359       .  A
C1067      C1905   1.475       .  S
N1068      C1069   1.362       .  A
C1069      N1070   1.358       .  A
C1069      C1940   1.478       .  S
N1070      C1071   1.354       .  A
C1071      N1072   1.353       .  A
O1073      C1089   1.276       .  A
O1073     Zn1079   2.023       .  S
C1074      C2036   1.480       .  S
C1074      O1090   1.276       .  A
C1074      O1087   1.275       .  A
O1075      C1088   1.275       .  A
O1075     Cd1082   2.084       .  S
O1076      C1094   1.276       .  A
O1076     Cd1085   2.069       .  S
O1077      C1091   1.273       .  A
O1077     Cd1081   2.075       .  S
O1078      C1089   1.274       .  A
O1078     Cd1081   2.071       .  S
Zn1079     O1090   2.022       .  S
Zn1079     O1092   2.034       .  S
Zn1079     O1084   1.946       .  S
O1080      C1091   1.274       .  A
O1080     Cd1085   2.082       .  S
Cd1081     O1083   2.047       .  S
Cd1081     O1084   1.996       .  S
Cd1082     O1086   2.090       .  S
Cd1082     O1095   2.079       .  S
Cd1082     O1084   2.011       .  S
O1083      C1093   1.273       .  A
O1084     Cd1085   2.002       .  S
Cd1085     O1087   2.064       .  S
O1086      C1093   1.278       .  A
C1088      C1097   1.468       .  S
C1088      O1092   1.275       .  A
C1089      C1857   1.484       .  S
C1091      C1116   1.466   1_556  S
C1093      C1892   1.482       .  S
C1094      C1953   1.484       .  S
C1094      O1095   1.277       .  A
O1096      C1112   1.274       .  A
O1096     Zn1102   2.016       .  S
C1097      O1113   1.275       .  A
C1097      O1110   1.274       .  A
O1098      C1111   1.277       .  A
O1098     Cd1105   2.082       .  S
O1099      C1117   1.276       .  A
O1099     Cd1108   2.068       .  S
O1100      C1114   1.275       .  A
O1100     Cd1104   2.064       .  S
O1101      C1112   1.275       .  A
O1101     Cd1104   2.069       .  S
Zn1102     O1113   2.033       .  S
Zn1102     O1115   2.008       .  S
Zn1102     O1107   1.944       .  S
O1103      C1114   1.275       .  A
O1103     Cd1108   2.074       .  S
Cd1104     O1106   2.078       .  S
Cd1104     O1107   1.996       .  S
Cd1105     O1109   2.083       .  S
Cd1105     O1118   2.075       .  S
Cd1105     O1107   2.007       .  S
O1107     Cd1108   2.003       .  S
Cd1108     O1110   2.079       .  S
C1111      C1809   1.481       .  S
C1111      O1115   1.274       .  A
C1112      C1844   1.478       .  S
C1114      C1916   1.480       .  S
C1117      C2060   1.482       .  S
C1117      O1118   1.277       .  A
C1119      N1120   1.357       .  A
C1119      N1124   1.364       .  A
C1119      C1820   1.478       .  S
N1120      C1121   1.351       .  A
C1121      N1122   1.352       .  A
C1121      C1129   1.464       .  S
N1122      C1123   1.359       .  A
C1123      N1124   1.365       .  A
C1123      C1785   1.475       .  S
C1125      N1126   1.365       .  A
C1125      N1130   1.358       .  A
C1125      C1761   1.471       .  S
N1126      C1127   1.364       .  A
C1127      N1128   1.357       .  A
C1127      C1868   1.477       .  S
N1128      C1129   1.352       .  A
C1129      N1130   1.353       .  A
O1131      C1147   1.272       .  A
O1131     Zn1137   1.995       .  S
C1132      C1175   1.468       .  S
C1132      O1148   1.273       .  A
C1132      O1145   1.277       .  A
O1133      C1146   1.273       .  A
O1133     Cd1140   2.065       .  S
O1134      C1152   1.277       .  A
O1134     Cd1143   2.074       .  S
O1135      C1149   1.275       .  A
O1135     Cd1139   2.064       .  S
O1136      C1147   1.275       .  A
O1136     Cd1139   2.068       .  S
Zn1137     O1148   2.018       .  S
Zn1137     O1150   2.027       .  S
Zn1137     O1142   1.945       .  S
O1138      C1149   1.277       .  A
O1138     Cd1143   2.090       .  S
Cd1139     O1141   2.092       .  S
Cd1139     O1142   2.002       .  S
Cd1140     O1144   2.074       .  S
Cd1140     O1153   2.060       .  S
Cd1140     O1142   1.998       .  S
O1141      C1151   1.276       .  A
O1142     Cd1143   2.011       .  S
Cd1143     O1145   2.095       .  S
O1144      C1151   1.274       .  A
C1146      C1772   1.483       .  S
C1146      O1150   1.275       .  A
C1147      C1737   1.472       .  S
C1149      C1977   1.485       .  S
C1151      C1170   1.469       .  S
C1152      C1713   1.473       .  S
C1152      O1153   1.275       .  A
O1154     Zn1160   2.037       .  S
C1155      C1796   1.483       .  S
C1155      O1171   1.275       .  A
C1155      O1168   1.275       .  A
O1156      C1169   1.275       .  A
O1156     Cd1163   2.065       .  S
O1157      C1175   1.274       .  A
O1157     Cd1166   2.082       .  S
O1158      C1172   1.277       .  A
O1158     Cd1162   2.086       .  S
O1159     Cd1162   2.086       .  S
Zn1160     O1171   2.029       .  S
Zn1160     O1173   2.029       .  S
Zn1160     O1165   1.952       .  S
O1161      C1172   1.273       .  A
O1161     Cd1166   2.052       .  S
Cd1162     O1164   2.075       .  S
Cd1162     O1165   2.005       .  S
Cd1163     O1167   2.074       .  S
Cd1163     O1176   2.080       .  S
Cd1163     O1165   2.000       .  S
O1164      C1174   1.277       .  A
O1165     Cd1166   1.993       .  S
Cd1166     O1168   2.063       .  S
O1167      C1174   1.276       .  A
C1169      C1700   1.482       .  S
C1169      O1173   1.277       .  A
C1172      C1676   1.480       .  S
C1174      C1929   1.481       .  S
C1175      O1176   1.275       .  A
C1177      N1178   1.358       .  A
C1177      N1182   1.365       .  A
C1177      C1665   1.478       .  S
N1178      C1179   1.354       .  A
C1179      N1180   1.351       .  A
C1179      C1187   1.464       .  S
N1180      C1181   1.357       .  A
C1181      N1182   1.364       .  A
C1181      C1652   1.475       .  S
C1183      N1184   1.362       .  A
C1183      N1188   1.360       .  A
C1183      C1617   1.477       .  S
N1184      C1185   1.360       .  A
C1185      N1186   1.355       .  A
C1185      C1724   1.463       .  S
N1186      C1187   1.351       .  A
C1187      N1188   1.354       .  A
C1189      N1190   1.359       .  A
C1189      N1194   1.359       .  A
C1189      C1593   1.472       .  S
N1190      C1191   1.355       .  A
C1191      N1192   1.353   1_545  A
N1192      C1193   1.357       .  A
C1193      N1194   1.359   1_565  A
C1193      C1748   1.473       .  S
C1195      N1196   1.358       .  A
C1195      N1200   1.362   1_565  A
C1195      C1689   1.473       .  S
N1196      C1197   1.353   1_565  A
C1197      N1198   1.353       .  A
N1198      C1199   1.358       .  A
C1199      N1200   1.362       .  A
C1199      C1569   1.473       .  S
O1201      C1217   1.275       .  A
O1201     Zn1207   2.029       .  S
C1202      C1239   1.465       .  S
C1202      O1218   1.275       .  A
C1202      O1215   1.274       .  A
O1203      C1216   1.276       .  A
O1203     Cd1210   2.073       .  S
O1204      C1222   1.276       .  A
O1204     Cd1213   2.061       .  S
O1205      C1219   1.275       .  A
O1205     Cd1209   2.059       .  S
O1206      C1217   1.274       .  A
O1206     Cd1209   2.055       .  S
Zn1207     O1218   2.030       .  S
Zn1207     O1220   2.024       .  S
Zn1207     O1212   1.952       .  S
O1208      C1219   1.277       .  A
O1208     Cd1213   2.088       .  S
Cd1209     O1211   2.070       .  S
Cd1209     O1212   1.990       .  S
Cd1210     O1214   2.096       .  S
Cd1210     O1223   2.077       .  S
Cd1210     O1212   2.007       .  S
O1211      C1221   1.272       .  A
O1212     Cd1213   2.006       .  S
Cd1213     O1215   2.080       .  S
O1214      C1221   1.277       .  A
C1216      C1545   1.482       .  S
C1216      O1220   1.276       .  A
C1217      C1628   1.477       .  S
C1219      C1521   1.485       .  S
C1221      C1242   1.469       .  S
C1222      C1604   1.481       .  S
C1222      O1223   1.277       .  A
O1224      C1240   1.277       .  A
O1224     Zn1230   2.033       .  S
C1225      C1580   1.477       .  S
C1225      O1241   1.277       .  A
C1225      O1238   1.274       .  A
O1226     Cd1233   2.055       .  S
O1227      C1245   1.276       .  A
O1227     Cd1236   2.077       .  S
O1228      C1242   1.277       .  A
O1228     Cd1232   2.095       .  S
O1229      C1240   1.275       .  A
O1229     Cd1232   2.069       .  S
Zn1230     O1241   2.033       .  S
Zn1230     O1243   2.052       .  S
Zn1230     O1235   1.957       .  S
O1231      C1242   1.274       .  A
O1231     Cd1236   2.075       .  S
Cd1232     O1234   2.097       .  S
Cd1232     O1235   2.008       .  S
Cd1233     O1237   2.052       .  S
Cd1233     O1246   2.074       .  S
Cd1233     O1235   1.992       .  S
O1234      C1244   1.280       .  A
O1235     Cd1236   1.997       .  S
Cd1236     O1238   2.056       .  S
O1237      C1244   1.274       .  A
C1240      C1497   1.484       .  S
C1244      C1641   1.484       .  S
C1245      C1473   1.481       .  S
C1245      O1246   1.274       .  A
C1247      N1248   1.359       .  A
C1247      N1252   1.366       .  A
C1247      C1449   1.476       .  S
N1248      C1249   1.353       .  A
C1249      N1250   1.351       .  A
C1249      C1257   1.466       .  S
N1250      C1251   1.357       .  A
C1251      N1252   1.365       .  A
C1251      C1484   1.477       .  S
C1253      N1254   1.362       .  A
C1253      N1258   1.358       .  A
C1253      C1532   1.474       .  S
N1254      C1255   1.363       .  A
C1255      N1256   1.358       .  A
C1255      C1436   1.474       .  S
N1256      C1257   1.352       .  A
C1257      N1258   1.354       .  A
C1259      N1260   1.363   1_545  A
C1259      N1264   1.359       .  A
C1259      C1401   1.478       .  S
N1260      C1261   1.362       .  A
C1261      N1262   1.357       .  A
C1261      C1881   1.475       .  S
N1262      C1263   1.354       .  A
C1263      N1264   1.353   1_565  A
C1265      N1266   1.357       .  A
C1265      N1270   1.364       .  A
C1265      C1833   1.477       .  S
N1266      C1267   1.352       .  A
C1267      N1268   1.354   1_565  A
N1268      C1269   1.359       .  A
C1269      N1270   1.364   1_545  A
C1269      C1377   1.476       .  S
C1271      N1272   1.364       .  A
C1271      N1276   1.358       .  A
C1271      C1556   1.474       .  S
N1272      C1273   1.363       .  A
C1273      N1274   1.357       .  A
C1273      C1364   1.477       .  S
N1274      C1275   1.353       .  A
C1275      N1276   1.353       .  A
C1277      N1278   1.364       .  A
C1277      N1282   1.357       .  A
C1277      C1329   1.473       .  S
N1278      C1279   1.364       .  A
C1279      N1280   1.358       .  A
C1279      C1508   1.473       .  S
N1280      C1281   1.352       .  A
C1281      N1282   1.352       .  A
O1283      C1299   1.275       .  A
O1283     Zn1289   2.023       .  S
C1284      C1327   1.470       .  S
C1284      O1300   1.276       .  A
C1284      O1297   1.275       .  A
O1285      C1298   1.274       .  A
O1285     Cd1292   2.068       .  S
O1286      C1304   1.277       .  A
O1286     Cd1295   2.082       .  S
O1287      C1301   1.277       .  A
O1287     Cd1291   2.076       .  S
O1288      C1299   1.275       .  A
O1288     Cd1291   2.061       .  S
Zn1289     O1300   2.041       .  S
Zn1289     O1302   2.014       .  S
Zn1289     O1294   1.950       .  S
O1290      C1301   1.275       .  A
O1290     Cd1295   2.069       .  S
Cd1291     O1293   2.091       .  S
Cd1291     O1294   2.004       .  S
Cd1292     O1296   2.069       .  S
Cd1292     O1305   2.067       .  S
Cd1292     O1294   2.001       .  S
O1293      C1303   1.276       .  A
O1294     Cd1295   2.004       .  S
Cd1295     O1297   2.081       .  S
O1296      C1303   1.273       .  A
C1298      C1412   1.479       .  S
C1298      O1302   1.275       .  A
C1299      C1425   1.480       .  S
C1301      C2012   1.483       .  S
C1303      C1322   1.466       .  S
C1304      C1353   1.481       .  S
C1304      O1305   1.275       .  A
O1306      C1322   1.276       .  A
O1306     Zn1312   2.051       .  S
C1307      C1388   1.481       .  S
C1307      O1323   1.276       .  A
C1307      O1320   1.276       .  A
O1308      C1321   1.277       .  A
O1308     Cd1315   2.077       .  S
O1309     Cd1318   2.094       .  S
O1310      C1324   1.273       .  A
O1310     Cd1314   2.054       .  S
O1311      C1322   1.271       .  A
O1311     Cd1314   2.059       .  S
Zn1312     O1323   2.027       .  S
Zn1312     O1325   2.029       .  S
Zn1312     O1317   1.953       .  S
O1313      C1324   1.277       .  A
O1313     Cd1318   2.088       .  S
Cd1314     O1316   2.053       .  S
Cd1314     O1317   1.990       .  S
Cd1315     O1319   2.087       .  S
Cd1315     O1328   2.081       .  S
Cd1315     O1317   2.006       .  S
O1316      C1326   1.273       .  A
O1317     Cd1318   2.009       .  S
Cd1318     O1320   2.074       .  S
O1319      C1326   1.277       .  A
C1321      C1460   1.483       .  S
C1321      O1325   1.277       .  A
C1324      C1340   1.484       .  S
C1326      C2073   1.482       .  S
C1329      C1330   1.403       .  A
C1329      C1334   1.403       .  A
C1330      C1331   1.393       .  A
C1330      H1343   1.084       .  S
C1331      C1332   1.402       .  A
C1331      H1344   1.084       .  S
C1332      C1333   1.412       .  A
C1332      C1335   1.487       .  S
C1333      C1334   1.403       .  A
C1333      H1345   1.081       .  S
C1334      H1346   1.083       .  S
C1335      C1336   1.345       .  D
C1335      H1347   1.086       .  S
C1336      C1337   1.485       .  S
C1336      H1348   1.084       .  S
C1337      C1338   1.400       .  A
C1337      C1342   1.409       .  A
C1338      C1339   1.396       .  A
C1338      H1349   1.083       .  S
C1339      C1340   1.408       .  A
C1339      H1350   1.083       .  S
C1340      C1341   1.405       .  A
C1341      C1342   1.400       .  A
C1341      H1351   1.083       .  S
C1342      H1352   1.082       .  S
C1353      C1354   1.406       .  A
C1353      C1358   1.406       .  A
C1354      C1355   1.397       .  A
C1354      H1367   1.083       .  S
C1355      C1356   1.402       .  A
C1355      H1368   1.084       .  S
C1356      C1357   1.407       .  A
C1356      C1359   1.484       .  S
C1357      C1358   1.400       .  A
C1357      H1369   1.082       .  S
C1358      H1370   1.083       .  S
C1359      C1360   1.346       .  D
C1359      H1371   1.086       .  S
C1360      C1361   1.485       .  S
C1360      H1372   1.086       .  S
C1361      C1362   1.405       .  A
C1361      C1366   1.406       .  A
C1362      C1363   1.402       .  A
C1362      H1373   1.083       .  S
C1363      C1364   1.404       .  A
C1363      H1374   1.083       .  S
C1364      C1365   1.404       .  A
C1365      C1366   1.394       .  A
C1365      H1375   1.083       .  S
C1366      H1376   1.082       .  S
C1377      C1378   1.404       .  A
C1377      C1382   1.402       .  A
C1378      C1379   1.404       .  A
C1378      H1391   1.083       .  S
C1379      C1380   1.407       .  A
C1379      H1392   1.083       .  S
C1380      C1381   1.407       .  A
C1380      C1383   1.489       .  S
C1381      C1382   1.394       .  A
C1381      H1393   1.081       .  S
C1382      H1394   1.084       .  S
C1383      C1384   1.348       .  D
C1383      H1395   1.085       .  S
C1384      C1385   1.487       .  S
C1384      H1396   1.086       .  S
C1385      C1386   1.404       .  A
C1385      C1390   1.408       .  A
C1386      C1387   1.398       .  A
C1386      H1397   1.084       .  S
C1387      C1388   1.405       .  A
C1387      H1398   1.083       .  S
C1388      C1389   1.406       .  A
C1389      C1390   1.400       .  A
C1389      H1399   1.083       .  S
C1390      H1400   1.081       .  S
C1401      C1402   1.405       .  A
C1401      C1406   1.404       .  A
C1402      C1403   1.401       .  A
C1402      H1415   1.083       .  S
C1403      C1404   1.404       .  A
C1403      H1416   1.083       .  S
C1404      C1405   1.406       .  A
C1404      C1407   1.485       .  S
C1405      C1406   1.393       .  A
C1405      H1417   1.082       .  S
C1406      H1418   1.083       .  S
C1407      C1408   1.347       .  D
C1407      H1419   1.083       .  S
C1408      C1409   1.486       .  S
C1408      H1420   1.086       .  S
C1409      C1410   1.403       .  A
C1409      C1414   1.409       .  A
C1410      C1411   1.394       .  A
C1410      H1421   1.084       .  S
C1411      C1412   1.404       .  A
C1411      H1422   1.083       .  S
C1412      C1413   1.406       .  A
C1413      C1414   1.400       .  A
C1413      H1423   1.083       .  S
C1414      H1424   1.080       .  S
C1425      C1426   1.407       .  A
C1425      C1430   1.404       .  A
C1426      C1427   1.400       .  A
C1426      H1439   1.083       .  S
C1427      C1428   1.403       .  A
C1427      H1440   1.083       .  S
C1428      C1429   1.408       .  A
C1428      C1431   1.486       .  S
C1429      C1430   1.394       .  A
C1429      H1441   1.081       .  S
C1430      H1442   1.083       .  S
C1431      C1432   1.346       .  D
C1431      H1443   1.086       .  S
C1432      C1433   1.478       .  S
C1432      H1444   1.085       .  S
C1433      C1434   1.400       .  A
C1433      C1438   1.407       .  A
C1434      C1435   1.392       .  A
C1434      H1445   1.084       .  S
C1435      C1436   1.404       .  A
C1435      H1446   1.084       .  S
C1436      C1437   1.405       .  A
C1437      C1438   1.402       .  A
C1437      H1447   1.083       .  S
C1438      H1448   1.083       .  S
C1449      C1450   1.403       .  A
C1449      C1454   1.403       .  A
C1450      C1451   1.404       .  A
C1450      H1463   1.083       .  S
C1451      C1452   1.407       .  A
C1451      H1464   1.083       .  S
C1452      C1453   1.407       .  A
C1452      C1455   1.489       .  S
C1453      C1454   1.395       .  A
C1453      H1465   1.082       .  S
C1454      H1466   1.083       .  S
C1455      C1456   1.348       .  D
C1455      H1467   1.086       .  S
C1456      C1457   1.487       .  S
C1456      H1468   1.086       .  S
C1457      C1458   1.403       .  A
C1457      C1462   1.408       .  A
C1458      C1459   1.399       .  A
C1458      H1469   1.083       .  S
C1459      C1460   1.406       .  A
C1459      H1470   1.083       .  S
C1460      C1461   1.406       .  A
C1461      C1462   1.400       .  A
C1461      H1471   1.083       .  S
C1462      H1472   1.082       .  S
C1473      C1474   1.408       .  A
C1473      C1478   1.403       .  A
C1474      C1475   1.402       .  A
C1474      H1487   1.083       .  S
C1475      C1476   1.402       .  A
C1475      H1488   1.083       .  S
C1476      C1477   1.407       .  A
C1476      C1479   1.486       .  S
C1477      C1478   1.397       .  A
C1477      H1489   1.083       .  S
C1478      H1490   1.083       .  S
C1479      C1480   1.345       .  D
C1479      H1491   1.085       .  S
C1480      C1481   1.488       .  S
C1480      H1492   1.088       .  S
C1481      C1482   1.402       .  A
C1481      C1486   1.412       .  A
C1482      C1483   1.392       .  A
C1482      H1493   1.083       .  S
C1483      C1484   1.403       .  A
C1483      H1494   1.084       .  S
C1484      C1485   1.404       .  A
C1485      C1486   1.406       .  A
C1485      H1495   1.083       .  S
C1486      H1496   1.081       .  S
C1497      C1498   1.405       .  A
C1497      C1502   1.407       .  A
C1498      C1499   1.398       .  A
C1498      H1511   1.083       .  S
C1499      C1500   1.405       .  A
C1499      H1512   1.084       .  S
C1500      C1501   1.408       .  A
C1500      C1503   1.489   1_655  S
C1501      C1502   1.399       .  A
C1501      H1513   1.080       .  S
C1502      H1514   1.083       .  S
C1503      C1504   1.351       .  D
C1503      H1515   1.085       .  S
C1504      C1505   1.488       .  S
C1504      H1516   1.084       .  S
C1505      C1506   1.407       .  A
C1505      C1510   1.406       .  A
C1506      C1507   1.403       .  A
C1506      H1517   1.083       .  S
C1507      C1508   1.403       .  A
C1507      H1518   1.083       .  S
C1508      C1509   1.403       .  A
C1509      C1510   1.394       .  A
C1509      H1519   1.084       .  S
C1510      H1520   1.082       .  S
C1521      C1522   1.405       .  A
C1521      C1526   1.408       .  A
C1522      C1523   1.393       .  A
C1522      H1535   1.083       .  S
C1523      C1524   1.402       .  A
C1523      H1536   1.084       .  S
C1524      C1525   1.408       .  A
C1524      C1527   1.486       .  S
C1525      C1526   1.405       .  A
C1525      H1537   1.081       .  S
C1526      H1538   1.083       .  S
C1527      C1528   1.349       .  D
C1527      H1539   1.085       .  S
C1528      C1529   1.491       .  S
C1528      H1540   1.085       .  S
C1529      C1530   1.407       .  A
C1529      C1534   1.408       .  A
C1530      C1531   1.404       .  A
C1530      H1541   1.083       .  S
C1531      C1532   1.404       .  A
C1531      H1542   1.083       .  S
C1532      C1533   1.401       .  A
C1533      C1534   1.393       .  A
C1533      H1543   1.084       .  S
C1534      H1544   1.081       .  S
C1545      C1546   1.405       .  A
C1545      C1550   1.407       .  A
C1546      C1547   1.397       .  A
C1546      H1559   1.083       .  S
C1547      C1548   1.402       .  A
C1547      H1560   1.083       .  S
C1548      C1549   1.407       .  A
C1548      C1551   1.484   1_655  S
C1549      C1550   1.400       .  A
C1549      H1561   1.082       .  S
C1550      H1562   1.083       .  S
C1551      C1552   1.345       .  D
C1551      H1563   1.087       .  S
C1552      C1553   1.482       .  S
C1552      H1564   1.086       .  S
C1553      C1554   1.401       .  A
C1553      C1558   1.408       .  A
C1554      C1555   1.395       .  A
C1554      H1565   1.083       .  S
C1555      C1556   1.404       .  A
C1555      H1566   1.084       .  S
C1556      C1557   1.404       .  A
C1557      C1558   1.401       .  A
C1557      H1567   1.083       .  S
C1558      H1568   1.083       .  S
C1569      C1570   1.403       .  A
C1569      C1574   1.403       .  A
C1570      C1571   1.400       .  A
C1570      H1583   1.083       .  S
C1571      C1572   1.405       .  A
C1571      H1584   1.083       .  S
C1572      C1573   1.406       .  A
C1572      C1575   1.482       .  S
C1573      C1574   1.393       .  A
C1573      H1585   1.082       .  S
C1574      H1586   1.084       .  S
C1575      C1576   1.344       .  D
C1575      H1587   1.087       .  S
C1576      C1577   1.479       .  S
C1576      H1588   1.086       .  S
C1577      C1578   1.400       .  A
C1577      C1582   1.408       .  A
C1578      C1579   1.396       .  A
C1578      H1589   1.083       .  S
C1579      C1580   1.406       .  A
C1579      H1590   1.083       .  S
C1580      C1581   1.404       .  A
C1581      C1582   1.399       .  A
C1581      H1591   1.083       .  S
C1582      H1592   1.082       .  S
C1593      C1594   1.402       .  A
C1593      C1598   1.405       .  A
C1594      C1595   1.393       .  A
C1594      H1607   1.083       .  S
C1595      C1596   1.402       .  A
C1595      H1608   1.084       .  S
C1596      C1597   1.408       .  A
C1596      C1599   1.480       .  S
C1597      C1598   1.400       .  A
C1597      H1609   1.082       .  S
C1598      H1610   1.083       .  S
C1599      C1600   1.346       .  D
C1599      H1611   1.086       .  S
C1600      C1601   1.483       .  S
C1600      H1612   1.085       .  S
C1601      C1602   1.403       .  A
C1601      C1606   1.407       .  A
C1602      C1603   1.400       .  A
C1602      H1613   1.083       .  S
C1603      C1604   1.407       .  A
C1603      H1614   1.083       .  S
C1604      C1605   1.405       .  A
C1605      C1606   1.394       .  A
C1605      H1615   1.083       .  S
C1606      H1616   1.082       .  S
C1617      C1618   1.406       .  A
C1617      C1622   1.404       .  A
C1618      C1619   1.402       .  A
C1618      H1631   1.083       .  S
C1619      C1620   1.404       .  A
C1619      H1632   1.083       .  S
C1620      C1621   1.406       .  A
C1620      C1623   1.485       .  S
C1621      C1622   1.393       .  A
C1621      H1633   1.082       .  S
C1622      H1634   1.083       .  S
C1623      C1624   1.347       .  D
C1623      H1635   1.085       .  S
C1624      C1625   1.481       .  S
C1624      H1636   1.086       .  S
C1625      C1626   1.402       .  A
C1625      C1630   1.407       .  A
C1626      C1627   1.392       .  A
C1626      H1637   1.084       .  S
C1627      C1628   1.403       .  A
C1627      H1638   1.083       .  S
C1628      C1629   1.406       .  A
C1629      C1630   1.403       .  A
C1629      H1639   1.083       .  S
C1630      H1640   1.082       .  S
C1641      C1642   1.407       .  A
C1641      C1646   1.405       .  A
C1642      C1643   1.395       .  A
C1642      H1655   1.083       .  S
C1643      C1644   1.401       .  A
C1643      H1656   1.084       .  S
C1644      C1645   1.411       .  A
C1644      C1647   1.489       .  S
C1645      C1646   1.402       .  A
C1645      H1657   1.080       .  S
C1646      H1658   1.083       .  S
C1647      C1648   1.346       .  D
C1647      H1659   1.085       .  S
C1648      C1649   1.487       .  S
C1648      H1660   1.084       .  S
C1649      C1650   1.401       .  A
C1649      C1654   1.411       .  A
C1650      C1651   1.394       .  A
C1650      H1661   1.083       .  S
C1651      C1652   1.404       .  A
C1651      H1662   1.084       .  S
C1652      C1653   1.403       .  A
C1653      C1654   1.403       .  A
C1653      H1663   1.083       .  S
C1654      H1664   1.082       .  S
C1665      C1666   1.404       .  A
C1665      C1670   1.405       .  A
C1666      C1667   1.403       .  A
C1666      H1679   1.083       .  S
C1667      C1668   1.405       .  A
C1667      H1680   1.083       .  S
C1668      C1669   1.405       .  A
C1668      C1671   1.484       .  S
C1669      C1670   1.394       .  A
C1669      H1681   1.082       .  S
C1670      H1682   1.083       .  S
C1671      C1672   1.347       .  D
C1671      H1683   1.086       .  S
C1672      C1673   1.483       .  S
C1672      H1684   1.086       .  S
C1673      C1674   1.404       .  A
C1673      C1678   1.405       .  A
C1674      C1675   1.400       .  A
C1674      H1685   1.083       .  S
C1675      C1676   1.405       .  A
C1675      H1686   1.083       .  S
C1676      C1677   1.406       .  A
C1677      C1678   1.396       .  A
C1677      H1687   1.083       .  S
C1678      H1688   1.082       .  S
C1689      C1690   1.404       .  A
C1689      C1694   1.402       .  A
C1690      C1691   1.402       .  A
C1690      H1703   1.083       .  S
C1691      C1692   1.406       .  A
C1691      H1704   1.083       .  S
C1692      C1693   1.407       .  A
C1692      C1695   1.487       .  S
C1693      C1694   1.393       .  A
C1693      H1705   1.082       .  S
C1694      H1706   1.084       .  S
C1695      C1696   1.350       .  D
C1695      H1707   1.083       .  S
C1696      C1697   1.487       .  S
C1696      H1708   1.085       .  S
C1697      C1698   1.405       .  A
C1697      C1702   1.407       .  A
C1698      C1699   1.396       .  A
C1698      H1709   1.083       .  S
C1699      C1700   1.404       .  A
C1699      H1710   1.083       .  S
C1700      C1701   1.407       .  A
C1701      C1702   1.399       .  A
C1701      H1711   1.083       .  S
C1702      H1712   1.080       .  S
C1713      C1714   1.404       .  A
C1713      C1718   1.404       .  A
C1714      C1715   1.395       .  A
C1714      H1727   1.083       .  S
C1715      C1716   1.402       .  A
C1715      H1728   1.084       .  S
C1716      C1717   1.408       .  A
C1716      C1719   1.479       .  S
C1717      C1718   1.398       .  A
C1717      H1729   1.082       .  S
C1718      H1730   1.083       .  S
C1719      C1720   1.345       .  D
C1719      H1731   1.086       .  S
C1720      C1721   1.481       .  S
C1720      H1732   1.086       .  S
C1721      C1722   1.406       .  A
C1721      C1726   1.406       .  A
C1722      C1723   1.402       .  A
C1722      H1733   1.083       .  S
C1723      C1724   1.402       .  A
C1723      H1734   1.083       .  S
C1724      C1725   1.399       .  A
C1725      C1726   1.389       .  A
C1725      H1735   1.084       .  S
C1726      H1736   1.082       .  S
C1737      C1738   1.405       .  A
C1737      C1742   1.403       .  A
C1738      C1739   1.394       .  A
C1738      H1751   1.083       .  S
C1739      C1740   1.401       .  A
C1739      H1752   1.084       .  S
C1740      C1741   1.407       .  A
C1740      C1743   1.476       .  S
C1741      C1742   1.396       .  A
C1741      H1753   1.082       .  S
C1742      H1754   1.083       .  S
C1743      C1744   1.343       .  D
C1743      H1755   1.087       .  S
C1744      C1745   1.478       .  S
C1744      H1756   1.086       .  S
C1745      C1746   1.403       .  A
C1745      C1750   1.405       .  A
C1746      C1747   1.399       .  A
C1746      H1757   1.083       .  S
C1747      C1748   1.405       .  A
C1747      H1758   1.083       .  S
C1748      C1749   1.403       .  A
C1749      C1750   1.391       .  A
C1749      H1759   1.083       .  S
C1750      H1760   1.082       .  S
C1761      C1762   1.402       .  A
C1761      C1766   1.403       .  A
C1762      C1763   1.396       .  A
C1762      H1775   1.084       .  S
C1763      C1764   1.402       .  A
C1763      H1776   1.083       .  S
C1764      C1765   1.408       .  A
C1764      C1767   1.482       .  S
C1765      C1766   1.403       .  A
C1765      H1777   1.083       .  S
C1766      H1778   1.083       .  S
C1767      C1768   1.346       .  D
C1767      H1779   1.086       .  S
C1768      C1769   1.486       .  S
C1768      H1780   1.087       .  S
C1769      C1770   1.403       .  A
C1769      C1774   1.406       .  A
C1770      C1771   1.398       .  A
C1770      H1781   1.083       .  S
C1771      C1772   1.406       .  A
C1771      H1782   1.083       .  S
C1772      C1773   1.407       .  A
C1773      C1774   1.399       .  A
C1773      H1783   1.083       .  S
C1774      H1784   1.082       .  S
C1785      C1786   1.403       .  A
C1785      C1790   1.403       .  A
C1786      C1787   1.403       .  A
C1786      H1799   1.083       .  S
C1787      C1788   1.407       .  A
C1787      H1800   1.083       .  S
C1788      C1789   1.407       .  A
C1788      C1791   1.490       .  S
C1789      C1790   1.393       .  A
C1789      H1801   1.081       .  S
C1790      H1802   1.084       .  S
C1791      C1792   1.350       .  D
C1791      H1803   1.084       .  S
C1792      C1793   1.486       .  S
C1792      H1804   1.084       .  S
C1793      C1794   1.403       .  A
C1793      C1798   1.408       .  A
C1794      C1795   1.394       .  A
C1794      H1805   1.084       .  S
C1795      C1796   1.404       .  A
C1795      H1806   1.083       .  S
C1796      C1797   1.407       .  A
C1797      C1798   1.402       .  A
C1797      H1807   1.083       .  S
C1798      H1808   1.081       .  S
C1809      C1810   1.404       .  A
C1809      C1814   1.407       .  A
C1810      C1811   1.399       .  A
C1810      H1823   1.083       .  S
C1811      C1812   1.404       .  A
C1811      H1824   1.083       .  S
C1812      C1813   1.405       .  A
C1812      C1815   1.482       .  S
C1813      C1814   1.398       .  A
C1813      H1825   1.082       .  S
C1814      H1826   1.083       .  S
C1815      C1816   1.348       .  D
C1815      H1827   1.086       .  S
C1816      C1817   1.485       .  S
C1816      H1828   1.086       .  S
C1817      C1818   1.407       .  A
C1817      C1822   1.404       .  A
C1818      C1819   1.405       .  A
C1818      H1829   1.083       .  S
C1819      C1820   1.405       .  A
C1819      H1830   1.083       .  S
C1820      C1821   1.404       .  A
C1821      C1822   1.391       .  A
C1821      H1831   1.083       .  S
C1822      H1832   1.082       .  S
C1833      C1834   1.406       .  A
C1833      C1838   1.404       .  A
C1834      C1835   1.394       .  A
C1834      H1847   1.084       .  S
C1835      C1836   1.400       .  A
C1835      H1848   1.083       .  S
C1836      C1837   1.408       .  A
C1836      C1839   1.480       .  S
C1837      C1838   1.402       .  A
C1837      H1849   1.083       .  S
C1838      H1850   1.083       .  S
C1839      C1840   1.345       .  D
C1839      H1851   1.086       .  S
C1840      C1841   1.483       .  S
C1840      H1852   1.087       .  S
C1841      C1842   1.403       .  A
C1841      C1846   1.407       .  A
C1842      C1843   1.396       .  A
C1842      H1853   1.083       .  S
C1843      C1844   1.404       .  A
C1843      H1854   1.083       .  S
C1844      C1845   1.406       .  A
C1845      C1846   1.399       .  A
C1845      H1855   1.083       .  S
C1846      H1856   1.082       .  S
C1857      C1858   1.404       .  A
C1857      C1862   1.408       .  A
C1858      C1859   1.396       .  A
C1858      H1871   1.083       .  S
C1859      C1860   1.404       .  A
C1859      H1872   1.084       .  S
C1860      C1861   1.408       .  A
C1860      C1863   1.489       .  S
C1861      C1862   1.402       .  A
C1861      H1873   1.080       .  S
C1862      H1874   1.083       .  S
C1863      C1864   1.351       .  D
C1863      H1875   1.085       .  S
C1864      C1865   1.491       .  S
C1864      H1876   1.084       .  S
C1865      C1866   1.407       .  A
C1865      C1870   1.407       .  A
C1866      C1867   1.404       .  A
C1866      H1877   1.083       .  S
C1867      C1868   1.404       .  A
C1867      H1878   1.083       .  S
C1868      C1869   1.404       .  A
C1869      C1870   1.394       .  A
C1869      H1879   1.084       .  S
C1870      H1880   1.081       .  S
C1881      C1882   1.404       .  A
C1881      C1886   1.403       .  A
C1882      C1883   1.401       .  A
C1882      H1895   1.083       .  S
C1883      C1884   1.405       .  A
C1883      H1896   1.083       .  S
C1884      C1885   1.408       .  A
C1884      C1887   1.487       .  S
C1885      C1886   1.394       .  A
C1885      H1897   1.081       .  S
C1886      H1898   1.084       .  S
C1887      C1888   1.347       .  D
C1887      H1899   1.085       .  S
C1888      C1889   1.483       .  S
C1888      H1900   1.085       .  S
C1889      C1890   1.400       .  A
C1889      C1894   1.409       .  A
C1890      C1891   1.392       .  A
C1890      H1901   1.084       .  S
C1891      C1892   1.406       .  A
C1891      H1902   1.083       .  S
C1892      C1893   1.406       .  A
C1893      C1894   1.403       .  A
C1893      H1903   1.083       .  S
C1894      H1904   1.081       .  S
C1905      C1906   1.406       .  A
C1905      C1910   1.402       .  A
C1906      C1907   1.402       .  A
C1906      H1919   1.083       .  S
C1907      C1908   1.404       .  A
C1907      H1920   1.083       .  S
C1908      C1909   1.406       .  A
C1908      C1911   1.483       .  S
C1909      C1910   1.391       .  A
C1909      H1921   1.083       .  S
C1910      H1922   1.083       .  S
C1911      C1912   1.348       .  D
C1911      H1923   1.084       .  S
C1912      C1913   1.482       .  S
C1912      H1924   1.087       .  S
C1913      C1914   1.402       .  A
C1913      C1918   1.408       .  A
C1914      C1915   1.392       .  A
C1914      H1925   1.084       .  S
C1915      C1916   1.404       .  A
C1915      H1926   1.083       .  S
C1916      C1917   1.407       .  A
C1917      C1918   1.401       .  A
C1917      H1927   1.083       .  S
C1918      H1928   1.080       .  S
C1929      C1930   1.406       .  A
C1929      C1934   1.405       .  A
C1930      C1931   1.399       .  A
C1930      H1943   1.083       .  S
C1931      C1932   1.402       .  A
C1931      H1944   1.083       .  S
C1932      C1933   1.406       .  A
C1932      C1935   1.481       .  S
C1933      C1934   1.398       .  A
C1933      H1945   1.083       .  S
C1934      H1946   1.083       .  S
C1935      C1936   1.345   1_655  D
C1935      H1947   1.087       .  S
C1936      C1937   1.482       .  S
C1936      H1948   1.087       .  S
C1937      C1938   1.404       .  A
C1937      C1942   1.405       .  A
C1938      C1939   1.401       .  A
C1938      H1949   1.083       .  S
C1939      C1940   1.405       .  A
C1939      H1950   1.083       .  S
C1940      C1941   1.405       .  A
C1941      C1942   1.395       .  A
C1941      H1951   1.083       .  S
C1942      H1952   1.082       .  S
C1953      C1954   1.406       .  A
C1953      C1958   1.407       .  A
C1954      C1955   1.397       .  A
C1954      H1967   1.083       .  S
C1955      C1956   1.403       .  A
C1955      H1968   1.083       .  S
C1956      C1957   1.407       .  A
C1956      C1959   1.487       .  S
C1957      C1958   1.400       .  A
C1957      H1969   1.082       .  S
C1958      H1970   1.083       .  S
C1959      C1960   1.346       .  D
C1959      H1971   1.087       .  S
C1960      C1961   1.483       .  S
C1960      H1972   1.085       .  S
C1961      C1962   1.401       .  A
C1961      C1966   1.408       .  A
C1962      C1963   1.395       .  A
C1962      H1973   1.083       .  S
C1963      C1964   1.403       .  A
C1963      H1974   1.084       .  S
C1964      C1965   1.404       .  A
C1965      C1966   1.403       .  A
C1965      H1975   1.083       .  S
C1966      H1976   1.083       .  S
C1977      C1978   1.406       .  A
C1977      C1982   1.405       .  A
C1978      C1979   1.403       .  A
C1978      H1991   1.083       .  S
C1979      C1980   1.406       .  A
C1979      H1992   1.083       .  S
C1980      C1981   1.409       .  A
C1980      C1983   1.492       .  S
C1981      C1982   1.395       .  A
C1981      H1993   1.080       .  S
C1982      H1994   1.083       .  S
C1983      C1984   1.348   1_655  D
C1983      H1995   1.086   1_655  S
C1984      C1985   1.482       .  S
C1984      H1996   1.084   1_455  S
C1985      C1986   1.401       .  A
C1985      C1990   1.408       .  A
C1986      C1987   1.393       .  A
C1986      H1997   1.084       .  S
C1987      C1988   1.404       .  A
C1987      H1998   1.083       .  S
C1988      C1989   1.405       .  A
C1989      C1990   1.405       .  A
C1989      H1999   1.083       .  S
C1990      H2000   1.082       .  S
C2001      C2002   1.404       .  A
C2001      C2006   1.405       .  A
C2002      C2003   1.393       .  A
C2002      H2015   1.084       .  S
C2003      C2004   1.401       .  A
C2003      H2016   1.084       .  S
C2004      C2005   1.408       .  A
C2004      C2007   1.481       .  S
C2005      C2006   1.403       .  A
C2005      H2017   1.083       .  S
C2006      H2018   1.083       .  S
C2007      C2008   1.345       .  D
C2007      H2019   1.086       .  S
C2008      C2009   1.485       .  S
C2008      H2020   1.087       .  S
C2009      C2010   1.403       .  A
C2009      C2014   1.407       .  A
C2010      C2011   1.398       .  A
C2010      H2021   1.083       .  S
C2011      C2012   1.406       .  A
C2011      H2022   1.083       .  S
C2012      C2013   1.407       .  A
C2013      C2014   1.398       .  A
C2013      H2023   1.083       .  S
C2014      H2024   1.082       .  S
C2025      C2026   1.403       .  A
C2025      C2030   1.403       .  A
C2026      C2027   1.394       .  A
C2026      H2039   1.084       .  S
C2027      C2028   1.400       .  A
C2027      H2040   1.083       .  S
C2028      C2029   1.407       .  A
C2028      C2031   1.479       .  S
C2029      C2030   1.400       .  A
C2029      H2041   1.083       .  S
C2030      H2042   1.083       .  S
C2031      C2032   1.344       .  D
C2031      H2043   1.086       .  S
C2032      C2033   1.482       .  S
C2032      H2044   1.087       .  S
C2033      C2034   1.402       .  A
C2033      C2038   1.406       .  A
C2034      C2035   1.396       .  A
C2034      H2045   1.083       .  S
C2035      C2036   1.405       .  A
C2035      H2046   1.083       .  S
C2036      C2037   1.407       .  A
C2037      C2038   1.398       .  A
C2037      H2047   1.083       .  S
C2038      H2048   1.082       .  S
C2049      C2050   1.403       .  A
C2049      C2054   1.403       .  A
C2050      C2051   1.401       .  A
C2050      H2063   1.083       .  S
C2051      C2052   1.406       .  A
C2051      H2064   1.083       .  S
C2052      C2053   1.407       .  A
C2052      C2055   1.487       .  S
C2053      C2054   1.394       .  A
C2053      H2065   1.081       .  S
C2054      H2066   1.083       .  S
C2055      C2056   1.349       .  D
C2055      H2067   1.085       .  S
C2056      C2057   1.483       .  S
C2056      H2068   1.084       .  S
C2057      C2058   1.403       .  A
C2057      C2062   1.407       .  A
C2058      C2059   1.396       .  A
C2058      H2069   1.083       .  S
C2059      C2060   1.406       .  A
C2059      H2070   1.083       .  S
C2060      C2061   1.406       .  A
C2061      C2062   1.399       .  A
C2061      H2071   1.083       .  S
C2062      H2072   1.081       .  S
C2073      C2074   1.405       .  A
C2073      C2078   1.406       .  A
C2074      C2075   1.393       .  A
C2074      H2087   1.083       .  S
C2075      C2076   1.403       .  A
C2075      H2088   1.084       .  S
C2076      C2077   1.409       .  A
C2076      C2079   1.486       .  S
C2077      C2078   1.403       .  A
C2077      H2089   1.080       .  S
C2078      H2090   1.083       .  S
C2079      C2080   1.349       .  D
C2079      H2091   1.086       .  S
C2080      C2081   1.487       .  S
C2080      H2092   1.083       .  S
C2081      C2082   1.406       .  A
C2081      C2086   1.406       .  A
C2082      C2083   1.404       .  A
C2082      H2093   1.083       .  S
C2083      C2084   1.404       .  A
C2083      H2094   1.083       .  S
C2084      C2085   1.403       .  A
C2085      C2086   1.391       .  A
C2085      H2095   1.084       .  S
C2086      H2096   1.082       .  S
