geometry optimzed in LAMMPS
_audit_creation_date              2020-12-01 
_audit_creation_method            'lammps2cif' 
_symmetry_space_group_name_H-M    'P1' 
_symmetry_Int_Tables_number       1 
_symmetry_cell_setting            triclinic 
loop_ 
_symmetry_equiv_pos_as_xyz 
  x,y,z 
_cell_length_a                    32.90978056 
_cell_length_b                    32.83777951236971 
_cell_length_c                    25.912618847124193 
_cell_angle_alpha                 91.03577286700202 
_cell_angle_beta                  90.18495279198928 
_cell_angle_gamma                 120.14663673107908 
loop_ 
_atom_site_label 
_atom_site_type_symbol 
_atom_site_fract_x 
_atom_site_fract_y 
_atom_site_fract_z 
_atom_site_charge 
C1          C  0.67359188  0.32757172  0.09312833     0.30300
C2          C  0.67425156  0.32660180  0.98680570     0.30300
C3          C  0.69603266  0.30064486  0.06748500    -0.05900
C4          C  0.62554003  0.30548833  0.06565776    -0.06700
C5          C  0.70162369  0.37563191  0.06767124    -0.06600
C6          C  0.69491423  0.29873788  0.01324378    -0.05900
C7          C  0.62559934  0.30444734  0.01201262    -0.06700
C8          C  0.70142600  0.37515801  0.01403892    -0.06600
C9          C  0.71234242  0.26974288  0.99850199    -0.31900
N10         N  0.72746894  0.25773916  0.04121860     0.14600
C11         C  0.71908625  0.27743295  0.08314952    -0.32000
H12         H  0.73013473  0.27526028  0.12177571     0.16500
C13         C  0.57915429  0.28030925  0.99584065    -0.30900
N14         N  0.55122084  0.26809302  0.03801653     0.13300
C15         C  0.57938062  0.28288159  0.08081905    -0.30900
C16         C  0.72814130  0.42121331  0.99900806    -0.31200
N17         N  0.74496001  0.44939571  0.04199633     0.13800
H18         H  0.73505957  0.43333902  0.95972563     0.16400
C19         C  0.72935146  0.42182008  0.08404412    -0.31200
H20         H  0.73682344  0.43461471  0.12366980     0.16400
H21         H  0.56719015  0.27766121  0.12019616     0.16400
H22         H  0.71377829  0.25752433  0.95994077     0.16500
H23         H  0.56662710  0.27138510  0.95630763     0.16400
C24         C  0.66208519  0.34634058  0.48699958     0.30300
C25         C  0.66301288  0.34235063  0.59305047     0.30300
C26         C  0.68762054  0.32273789  0.51026976    -0.05900
C27         C  0.68465224  0.39444855  0.51661616    -0.06700
C28         C  0.61375315  0.32044197  0.51261014    -0.06600
C29         C  0.68819222  0.32064685  0.56362603    -0.05900
C30         C  0.68511271  0.39195795  0.57052937    -0.06700
C31         C  0.61377719  0.31844210  0.56644797    -0.06600
C32         C  0.71296383  0.29844384  0.57599675    -0.31900
N33         N  0.72703504  0.28690650  0.53149196     0.14600
C34         C  0.71195891  0.30195528  0.49118844    -0.32000
H35         H  0.71876061  0.29864545  0.45094336     0.16500
C36         C  0.70117237  0.43663121  0.59056791    -0.30900
N37         N  0.71052997  0.46632307  0.55098566     0.13300
C38         C  0.69940220  0.44100251  0.50590833    -0.30900
C39         C  0.56756078  0.30092291  0.58082301    -0.31200
N40         N  0.53993682  0.28992731  0.53786936     0.13800
H41         H  0.55446969  0.29825985  0.61950198     0.16400
C42         C  0.56800499  0.30269993  0.49605102    -0.31200
H43         H  0.55611618  0.29920842  0.45641478     0.16400
H44         H  0.70120963  0.45578517  0.46851427     0.16400
H45         H  0.71987971  0.29084721  0.61445147     0.16500
H46         H  0.70468461  0.44681678  0.63100057     0.16400
C47         C  0.33399560  0.65153377  0.01338295     0.30300
C48         C  0.33435530  0.65497129  0.90721216     0.30300
C49         C  0.31520793  0.68145224  0.98964783    -0.05900
C50         C  0.38252725  0.67117839  0.98762753    -0.06700
C51         C  0.30526590  0.60372042  0.98408091    -0.06600
C52         C  0.31431329  0.68248717  0.93604891    -0.05900
C53         C  0.38245832  0.67328747  0.93388101    -0.06700
C54         C  0.30458503  0.60579512  0.93027432    -0.06600
C55         C  0.29079821  0.70597075  0.92359998    -0.31900
N56         N  0.28125046  0.72263371  0.96749718     0.14600
C57         C  0.29536464  0.70702744  0.00823674    -0.32000
H58         H  0.29137093  0.71354138  0.04846899     0.16500
C59         C  0.42842405  0.69274610  0.91813293    -0.30900
N60         N  0.45643969  0.70217764  0.96052103     0.13300
C61         C  0.42869128  0.68784965  0.00275141    -0.30900
C62         C  0.27643071  0.56042786  0.91152156    -0.31200
N63         N  0.26192684  0.53079479  0.95174116     0.13800
H64         H  0.26724070  0.54936342  0.87155205     0.16400
C65         C  0.27961370  0.55660379  0.99612644    -0.31200
H66         H  0.27514952  0.54189104  0.03411649     0.16400
H67         H  0.44164794  0.68909343  0.04145928     0.16400
H68         H  0.27902303  0.70864629  0.88554745     0.16500
H69         H  0.44070164  0.70060543  0.87888837     0.16400
C70         C  0.32698075  0.67237305  0.40748783     0.30300
C71         C  0.32898999  0.67324592  0.51377206     0.30300
C72         C  0.30294308  0.69712070  0.43468575    -0.05900
C73         C  0.30418098  0.62449860  0.43315095    -0.06700
C74         C  0.37599876  0.69864895  0.43318375    -0.06600
C75         C  0.30384966  0.69739434  0.48887725    -0.05900
C76         C  0.30498436  0.62479046  0.48665148    -0.06700
C77         C  0.37730807  0.69938567  0.48701254    -0.06600
C78         C  0.28574348  0.72526955  0.50556824    -0.31900
N79         N  0.27375820  0.74158830  0.46375882     0.14600
C80         C  0.28537121  0.72584117  0.42065097    -0.32000
H81         H  0.28206802  0.73586200  0.38212403     0.16500
C82         C  0.28232851  0.57849193  0.50148308    -0.30900
N83         N  0.26848309  0.55055024  0.45824187     0.13300
C84         C  0.28150841  0.57826299  0.41634070    -0.30900
C85         C  0.42390869  0.72810008  0.50162365    -0.31200
N86         N  0.45047792  0.74312710  0.45856174     0.13800
H87         H  0.43775944  0.73769239  0.54060667     0.16400
C88         C  0.42148972  0.72589278  0.41665549    -0.31200
H89         H  0.43277388  0.73338090  0.37705438     0.16400
H90         H  0.27457101  0.56559746  0.37662662     0.16400
H91         H  0.28280000  0.73440795  0.54515084     0.16500
H92         H  0.27669141  0.56600378  0.54063642     0.16400
O93         O  0.06917257  0.97739575  0.03651515    -0.88000
C94         C  0.07189221  0.05803390  0.91849168     0.88000
Mg95       Mg  0.01997637  0.90338492  0.03699154     1.58100
O96         O  0.02172636  0.07089989  0.03274117    -0.87800
O97         O  0.09006218  0.04036033  0.08462748    -0.75100
C98         C  0.81099420  0.87837536  0.97861039     0.93000
O99         O  0.04663734  0.94860376  0.91622654    -0.74900
O100        O  0.83448819  0.85743694  0.97320525    -0.82400
Mg101      Mg  0.10839814  0.00327539  0.96670085     1.58000
C102        C  0.89581130  0.07370190  0.02404915     0.93000
O103        O  0.17612043  0.05798428  0.00871399    -0.80700
H104        H  0.02594788  0.08605269  0.10833403    -0.06000
C105        C  0.92776394  0.98323372  0.92232487     0.87900
O106        O  0.97014448  0.91492854  0.08912635    -0.75200
O107        O  0.08329816  0.05191711  0.96192709    -0.88000
O108        O  0.93791614  0.09476466  0.00774741    -0.80800
C109        C  0.08522556  0.17904110  0.96455902     0.93100
C110        C  0.19741383  0.10114110  0.02326477     0.92900
Mg111      Mg  0.89982778  0.97734841  0.03472341     1.58000
O112        O  0.83072421  0.92166718  0.99306538    -0.80700
O113        O  0.96253129  0.03194607  0.08448563    -0.74900
O114        O  0.10853969  0.16046011  0.98136337    -0.80800
O115        O  0.13511639  0.95186855  0.97152760    -0.82500
O116        O  0.89994997  0.82016127  0.01824575    -0.80800
C117        C  0.00444767  0.06435145  0.07622772     0.87400
O118        O  0.92511550  0.92879511  0.03870993    -0.88000
O119        O  0.93897706  0.00368087  0.96488345    -0.88100
O120        O  0.91945168  0.94129277  0.91628131    -0.75100
Mg121      Mg  0.09638384  0.09694386  0.02908745     1.58000
O122        O  0.04062975  0.15569253  0.96071095    -0.82500
H123        H  0.08222495  0.97938807  0.11220348    -0.06200
O124        O  0.98750701  0.91049307  0.96806235    -0.87800
H125        H  0.98330504  0.89410982  0.89279957    -0.06000
H126        H  0.91731820  0.92435249  0.11522710    -0.06200
C127        C  0.00476362  0.91631201  0.92465223     0.87300
C128        C  0.08095758  0.99811424  0.07891155     0.87900
C129        C  0.93616057  0.92227277  0.08212384     0.88000
H130        H  0.92655434  0.00207267  0.88910856    -0.06200
O131        O  0.03785701  0.06533952  0.91157670    -0.75200
Mg132      Mg  0.91299999  0.88447178  0.97136082     1.58000
H133        H  0.09044482  0.05560483  0.88529749    -0.06200
C134        C  0.11345530  0.90778740  0.97923720     0.91000
O135        O  0.96838722  0.82541313  0.03787713    -0.82400
C136        C  0.92391353  0.80166047  0.03301729     0.93000
O137        O  0.17566823  0.12405051  0.02740154    -0.82400
Mg138      Mg  0.98856428  0.07754664  0.96394400     1.58200
O139        O  0.07097152  0.88608501  0.99420506    -0.80800
O140        O  0.87373978  0.02956715  0.03178322    -0.82500
O141        O  0.97674688  0.06874535  0.46053199    -0.88000
C142        C  0.06713729  0.08386458  0.57730929     0.88000
Mg143      Mg  0.90322047  0.01870978  0.46375859     1.58100
O144        O  0.07343556  0.02485165  0.46582739    -0.87800
O145        O  0.03675697  0.08629726  0.41107868    -0.75100
C146        C  0.88951662  0.81883178  0.53581107     0.93000
O147        O  0.95675000  0.05776791  0.58261581    -0.74900
O148        O  0.86868123  0.84243999  0.54088651    -0.82400
Mg149      Mg  0.00693988  0.11444973  0.52724490     1.58000
C150        C  0.08238303  0.90336232  0.47785384     0.93000
O151        O  0.05731016  0.17877003  0.48005080    -0.80700
H152        H  0.08357393  0.02327078  0.38996729    -0.06000
C153        C  0.99681962  0.94194009  0.58325947     0.87900
O154        O  0.91254874  0.96466817  0.41553021    -0.75200
O155        O  0.05659797  0.09031650  0.53356763    -0.88000
O156        O  0.10327420  0.94651693  0.49270273    -0.80800
C157        C  0.18652786  0.09725197  0.52530935     0.93100
C158        C  0.10052826  0.19889218  0.46812020     0.92900
Mg159      Mg  0.98305221  0.90313537  0.47259205     1.58000
O160        O  0.93150639  0.83754942  0.51902439    -0.80700
O161        O  0.03224948  0.96137046  0.41787640    -0.74900
O162        O  0.16448507  0.11781285  0.51098116    -0.80800
O163        O  0.95451106  0.13942299  0.52054730    -0.82500
O164        O  0.82445747  0.90101995  0.49329456    -0.80800
C165        C  0.06442487  0.00414521  0.42342239     0.87400
O166        O  0.93285003  0.92675679  0.46876753    -0.88000
O167        O  0.01426213  0.94829760  0.53988131    -0.88100
O168        O  0.95526065  0.93397443  0.59003035    -0.75100
Mg169      Mg  0.09731918  0.09881650  0.46563896     1.58000
O170        O  0.16540711  0.05301414  0.53179099    -0.82500
H171        H  0.97365573  0.07441802  0.38411911    -0.06200
O172        O  0.91633281  0.99398431  0.53500896    -0.87800
H173        H  0.90431566  0.99640688  0.61027497    -0.06000
H174        H  0.92206355  0.91049336  0.39339570    -0.06200
C175        C  0.92439762  0.01510131  0.57707697     0.87300
C176        C  0.99468035  0.07678262  0.41741113     0.87900
C177        C  0.92203316  0.93250475  0.42491214     0.88000
H178        H  0.01810739  0.94487936  0.61653900    -0.06200
O179        O  0.07759847  0.05217455  0.58579844    -0.75200
Mg180      Mg  0.89317626  0.92018197  0.53728856     1.58000
H181        H  0.06639067  0.10500511  0.60936554    -0.06200
C182        C  0.91016808  0.11722777  0.51385580     0.93000
O183        O  0.82558455  0.96545058  0.46628371    -0.82400
C184        C  0.80349484  0.92155296  0.47514382     0.93000
O185        O  0.12277512  0.17661293  0.46540752    -0.82400
Mg186      Mg  0.08763591  0.99927553  0.53546986     1.58200
O187        O  0.88747191  0.07329116  0.50232851    -0.80800
O188        O  0.03765223  0.87916815  0.47403857    -0.82500
C189        C  0.23664305  0.42639373  0.42553104    -0.27300
C190        C  0.19504500  0.40094182  0.45322862     0.02300
C191        C  0.17793021  0.42534528  0.48286606     0.30400
C192        C  0.20275254  0.47467057  0.48493485    -0.19100
C193        C  0.24401753  0.50006642  0.45673850    -0.28500
C194        C  0.26094821  0.47564189  0.42688599     0.44400
C195        C  0.17137218  0.34900152  0.45343562     0.05600
O196        O  0.13814699  0.40122240  0.51160285    -0.57000
H197        H  0.18960342  0.49324110  0.50810938     0.18500
O198        O  0.30167352  0.49966162  0.39966215    -0.63700
H199        H  0.25034078  0.40794520  0.40299920     0.17000
C200        C  0.12529185  0.32074013  0.43393247     0.29200
C201        C  0.10271008  0.27168679  0.43784476    -0.24600
C202        C  0.12600850  0.25019106  0.46007148    -0.23900
C203        C  0.17261799  0.27861574  0.47841744     0.40700
C204        C  0.19496675  0.32757824  0.47474044    -0.26400
O205        O  0.10198641  0.34076498  0.41136240    -0.58300
H206        H  0.06688211  0.25040188  0.42364582     0.16300
O207        O  0.19595316  0.25910271  0.50211823    -0.59700
H208        H  0.23039165  0.34904555  0.49004036     0.14800
H209        H  0.32740695  0.50910400  0.42541253     0.46600
H210        H  0.11150326  0.34461959  0.37465727     0.42000
H211        H  0.18757285  0.25730761  0.53906538     0.45500
H212        H  0.11310462  0.40299453  0.49212606     0.36900
C213        C  0.57591021  0.83434356  0.48960655    -0.27300
C214        C  0.60024007  0.82048363  0.45580063     0.02300
C215        C  0.57458644  0.78158374  0.42204259     0.30400
C216        C  0.52539620  0.75690336  0.42277952    -0.19100
C217        C  0.50100769  0.77022799  0.45719349    -0.28500
C218        C  0.52671265  0.80957238  0.49046280     0.44400
C219        C  0.65232920  0.84589003  0.45733362     0.05600
O220        O  0.59731115  0.76723152  0.38847869    -0.57000
H221        H  0.50615568  0.72662841  0.39710348     0.18500
O222        O  0.50412571  0.82423705  0.52379110    -0.63700
H223        H  0.59518392  0.86407052  0.51599121     0.17000
C224        C  0.67871524  0.89444467  0.44822129     0.29200
C225        C  0.72783547  0.91811711  0.45225960    -0.24600
C226        C  0.75164059  0.89425762  0.46632218    -0.23900
C227        C  0.72489058  0.84525626  0.47470278     0.40700
C228        C  0.67580777  0.82157420  0.46977779    -0.26400
O229        O  0.65678081  0.91884014  0.43429292    -0.58300
H230        H  0.74717945  0.95559802  0.44539586     0.16300
O231        O  0.74611239  0.81999660  0.48782275    -0.59700
H232        H  0.65585679  0.78416791  0.47703597     0.14800
H233        H  0.49516923  0.84354459  0.50278418     0.46600
H234        H  0.65711346  0.93648437  0.46590300     0.42000
H235        H  0.74412832  0.81787446  0.52595018     0.45500
H236        H  0.60167098  0.78536971  0.35679131     0.36900
C237        C  0.11917773  0.81180724  0.44895640    -0.27300
C238        C  0.16764999  0.83776519  0.45978379     0.02300
C239        C  0.18845892  0.88618207  0.47171831     0.30400
C240        C  0.16059635  0.90729726  0.47541284    -0.19100
C241        C  0.11149904  0.88089659  0.46730786    -0.28500
C242        C  0.09124438  0.83293078  0.45215475     0.44400
C243        C  0.19567889  0.81357495  0.46131359     0.05600
O244        O  0.23582803  0.91289805  0.48165823    -0.57000
H245        H  0.17754414  0.94430872  0.48629892     0.18500
O246        O  0.04399573  0.80580036  0.44188374    -0.63700
H247        H  0.10275178  0.77470354  0.43864890     0.17000
C248        C  0.18409082  0.77661350  0.49564629     0.29200
C249        C  0.21102858  0.75443256  0.49738161    -0.24600
C250        C  0.24933464  0.76787035  0.46449890    -0.23900
C251        C  0.26137487  0.80536409  0.43062979     0.40700
C252        C  0.23470416  0.82789549  0.42928436    -0.26400
O253        O  0.14720570  0.76281939  0.52872148    -0.58300
H254        H  0.20119996  0.72572259  0.52358990     0.16300
O255        O  0.29927585  0.82046970  0.39885507    -0.59700
H256        H  0.24429656  0.85643242  0.40286709     0.14800
H257        H  0.04042419  0.80947703  0.40451348     0.46600
H258        H  0.12094800  0.73382334  0.51265530     0.42000
H259        H  0.32713382  0.84021547  0.42123213     0.45500
H260        H  0.23946387  0.91046508  0.51929391     0.36900
C261        C  0.17145033  0.40474245  0.97417361    -0.27300
C262        C  0.18630433  0.38099253  0.94040473     0.02300
C263        C  0.22533778  0.40735698  0.90882794     0.30400
C264        C  0.24937229  0.45670142  0.91216922    -0.19100
C265        C  0.23548834  0.48028946  0.94731180    -0.28500
C266        C  0.19575042  0.45398444  0.97777279     0.44400
C267        C  0.16139061  0.32878069  0.94010942     0.05600
O268        O  0.23924302  0.38517760  0.87364107    -0.57000
H269        H  0.27956170  0.47668177  0.88801854     0.18500
O270        O  0.18026164  0.47615037  0.01089194    -0.63700
H271        H  0.14132583  0.38495309  0.99850161     0.17000
C272        C  0.18528465  0.30463303  0.95231567     0.29200
C273        C  0.16027591  0.25572596  0.95750546    -0.24600
C274        C  0.11102775  0.22987754  0.95171489    -0.23900
C275        C  0.08734958  0.25407899  0.93764489     0.40700
C276        C  0.11254576  0.30303259  0.93218410    -0.26400
O277        O  0.23281258  0.32871133  0.96185456    -0.58300
H278        H  0.17955392  0.23834432  0.96821011     0.16300
O279        O  0.03941241  0.23083760  0.93154907    -0.59700
H280        H  0.09367958  0.32118485  0.92291156     0.14800
H281        H  0.15867715  0.48220891  0.98988437     0.46600
H282        H  0.23638021  0.33707980  0.99921927     0.42000
H283        H  0.03355353  0.22257666  0.89420930     0.45500
H284        H  0.27059735  0.39167886  0.88582987     0.36900
C285        C  0.58264782  0.78684380  0.99717955    -0.27300
C286        C  0.60684018  0.77524275  0.96063230     0.02300
C287        C  0.58062011  0.73845249  0.92438441     0.30400
C288        C  0.53125697  0.71456715  0.92466482    -0.19100
C289        C  0.50717006  0.72639428  0.96114461    -0.28500
C290        C  0.53344867  0.76303575  0.99748661     0.44400
C291        C  0.65928117  0.80163154  0.96123817     0.05600
O292        O  0.60284936  0.72576947  0.88827492    -0.57000
H293        H  0.51164052  0.68650907  0.89651830     0.18500
O294        O  0.51140090  0.77660148  0.03287475    -0.63700
H295        H  0.60203154  0.81453920  0.02578883     0.17000
C296        C  0.68488604  0.85123911  0.96008388     0.29200
C297        C  0.73413179  0.87562450  0.96430718    -0.24600
C298        C  0.75900083  0.85140160  0.96980362    -0.23900
C299        C  0.73322499  0.80154607  0.96958900     0.40700
C300        C  0.68400874  0.77726340  0.96525092    -0.26400
O301        O  0.66206301  0.87613620  0.95343641    -0.58300
H302        H  0.75284585  0.91375609  0.96366193     0.16300
O303        O  0.75549956  0.77599246  0.97488179    -0.59700
H304        H  0.66497386  0.73915528  0.96658064     0.14800
H305        H  0.50577782  0.79978821  0.01493600     0.46600
H306        H  0.66373566  0.89113243  0.98755472     0.42000
H307        H  0.75663895  0.77175928  0.01255429     0.45500
H308        H  0.61068137  0.74834658  0.85998431     0.36900
C309        C  0.24513879  0.81136507  0.93404549    -0.27300
C310        C  0.21497077  0.80601938  0.97459804     0.02300
C311        C  0.20836132  0.77445478  0.01405720     0.30400
C312        C  0.23038288  0.74740132  0.01153907    -0.19100
C313        C  0.25956452  0.75150555  0.97004593    -0.28500
C314        C  0.26737753  0.78453833  0.93146588     0.44400
C315        C  0.18942309  0.83244657  0.97446554     0.05600
O316        O  0.18034059  0.76976214  0.05520922    -0.57000
H317        H  0.22400678  0.72262013  0.04174642     0.18500
O318        O  0.29824778  0.79240259  0.89228732    -0.63700
H319        H  0.25102214  0.83606145  0.90382734     0.17000
C320        C  0.21364761  0.88198598  0.97659714     0.29200
C321        C  0.18858955  0.90609852  0.97611129    -0.24600
C322        C  0.13911814  0.88143863  0.97381210    -0.23900
C323        C  0.11508334  0.83169677  0.97047077     0.40700
C324        C  0.14022958  0.80772404  0.97112575    -0.26400
O325        O  0.26177048  0.90711684  0.98022940    -0.58300
H326        H  0.20799342  0.94421350  0.97916617     0.16300
O327        O  0.06699615  0.80598615  0.96693317    -0.59700
H328        H  0.12123465  0.76957286  0.96872021     0.14800
H329        H  0.27859687  0.77981000  0.86048726     0.46600
H330        H  0.26911595  0.90929149  0.01768374     0.42000
H331        H  0.05953331  0.80426743  0.92957263     0.45500
H332        H  0.20120704  0.79476577  0.08039334     0.36900
C333        C  0.33889469  0.62463037  0.76317943    -0.27300
C334        C  0.33468401  0.66006683  0.73859219     0.02300
C335        C  0.33630715  0.69680693  0.76872698     0.30400
C336        C  0.33861615  0.69597887  0.82256601    -0.19100
C337        C  0.33681999  0.65753990  0.84799505    -0.28500
C338        C  0.34164357  0.62411369  0.81720694     0.44400
C339        C  0.33194905  0.66064535  0.68145177     0.05600
O340        O  0.33673239  0.73434332  0.74580640    -0.57000
H341        H  0.34361436  0.72666599  0.84391814     0.18500
O342        O  0.35019494  0.59143252  0.83916967    -0.63700
H343        H  0.34052863  0.59751670  0.74038253     0.17000
C344        C  0.36831408  0.66343221  0.65083744     0.29200
C345        C  0.36634130  0.66666147  0.59722432    -0.24600
C346        C  0.32953304  0.66961942  0.57277866    -0.23900
C347        C  0.29045057  0.66091440  0.60330786     0.40700
C348        C  0.29268992  0.65841452  0.65719487    -0.26400
O349        O  0.40602887  0.66300439  0.67292659    -0.58300
H350        H  0.39349535  0.66571926  0.57488301     0.16300
O351        O  0.24906450  0.65258704  0.58106142    -0.59700
H352        H  0.26315412  0.65357537  0.68009619     0.14800
H353        H  0.38480269  0.60748886  0.84386058     0.46600
H354        H  0.42882920  0.69641677  0.68186811     0.42000
H355        H  0.23167590  0.61840814  0.57222998     0.45500
H356        H  0.37045771  0.75796798  0.74163327     0.36900
C357        C  0.35549413  0.65013085  0.26925547    -0.27300
C358        C  0.32509672  0.65842104  0.23914231     0.02300
C359        C  0.29291285  0.66820141  0.26389913     0.30400
C360        C  0.29280091  0.67145181  0.31785968    -0.19100
C361        C  0.32613214  0.66756113  0.34839015    -0.28500
C362        C  0.35529378  0.65325511  0.32321611     0.44400
C363        C  0.32717386  0.65646498  0.18202547     0.05600
O364        O  0.26126225  0.67455607  0.23570937    -0.57000
H365        H  0.26502913  0.67493147  0.33518850     0.18500
O366        O  0.38338322  0.64154906  0.35097804    -0.63700
H367        H  0.37904884  0.64045543  0.25082279     0.17000
C368        C  0.36839561  0.68763439  0.15626637     0.29200
C369        C  0.36984357  0.68599067  0.10233185    -0.24600
C370        C  0.33157024  0.65157177  0.07264717    -0.23900
C371        C  0.28876995  0.62351592  0.09879517     0.40700
C372        C  0.28732777  0.62504303  0.15285370    -0.26400
O373        O  0.40653459  0.72191361  0.18336807    -0.58300
H374        H  0.40043446  0.71360550  0.08411867     0.16300
O375        O  0.24744409  0.59615062  0.07214258    -0.59700
H376        H  0.25460545  0.60224068  0.17202640     0.14800
H377        H  0.36567559  0.60666564  0.35225833     0.46600
H378        H  0.42857277  0.70976002  0.18629368     0.42000
H379        H  0.23407839  0.61689049  0.06647958     0.45500
H380        H  0.27792083  0.70853497  0.22770436     0.36900
C381        C  0.76873165  0.20445160  0.48760222    -0.27300
C382        C  0.80645032  0.21691868  0.52193737     0.02300
C383        C  0.81814418  0.25322690  0.55891372     0.30400
C384        C  0.79180063  0.27593521  0.56175270    -0.19100
C385        C  0.75384589  0.26330054  0.52769567    -0.28500
C386        C  0.74249139  0.22727997  0.49027315     0.44400
C387        C  0.83280590  0.19125306  0.51973096     0.05600
O388        O  0.85499566  0.26644185  0.59279915    -0.57000
H389        H  0.80119123  0.30376035  0.59042608     0.18500
O390        O  0.70523794  0.21343410  0.45682390    -0.63700
H391        H  0.75950619  0.17677713  0.45874601     0.17000
C392        C  0.80995204  0.14236255  0.52727238     0.29200
C393        C  0.83561132  0.11885354  0.52626938    -0.24600
C394        C  0.88424092  0.14338415  0.51742575    -0.23900
C395        C  0.90690270  0.19238749  0.50902810     0.40700
C396        C  0.88124770  0.21586508  0.51062286    -0.26400
O397        O  0.76282739  0.11759502  0.53758866    -0.58300
H398        H  0.81733385  0.08127518  0.53259621     0.16300
O399        O  0.95390423  0.21764717  0.49816852    -0.59700
H400        H  0.89914379  0.25340582  0.50406108     0.14800
H401        H  0.67733834  0.19002877  0.47581316     0.46600
H402        H  0.74731435  0.10148152  0.50453041     0.42000
H403        H  0.95565159  0.21517454  0.46011960     0.45500
H404        H  0.84157998  0.24488826  0.62215960     0.36900
C405        C  0.79204471  0.69593485  0.57190437    -0.27300
C406        C  0.81161900  0.66829485  0.55698858     0.02300
C407        C  0.85765958  0.69049243  0.53788699     0.30400
C408        C  0.88308745  0.73952680  0.53299878    -0.19100
C409        C  0.86342253  0.76750419  0.54696375    -0.28500
C410        C  0.81754647  0.74505848  0.56751346     0.44400
C411        C  0.78323206  0.61619179  0.55943091     0.05600
O412        O  0.87689476  0.66418202  0.52067072    -0.57000
H413        H  0.91785318  0.75540909  0.51660018     0.18500
O414        O  0.79658173  0.77042454  0.58213337    -0.63700
H415        H  0.75665540  0.67927633  0.58675908     0.17000
C416        C  0.79868375  0.59072714  0.58876379     0.29200
C417        C  0.77363991  0.54145093  0.58684343    -0.24600
C418        C  0.73296327  0.51676053  0.55595413    -0.23900
C419        C  0.71612978  0.54211558  0.52866916     0.40700
C420        C  0.74119566  0.59151384  0.53057370    -0.26400
O421        O  0.83870201  0.61370402  0.61872044    -0.58300
H422        H  0.78677966  0.52234482  0.60829932     0.16300
O423        O  0.67547921  0.51893632  0.49978775    -0.59700
H424        H  0.72850960  0.61062535  0.50836448     0.14800
H425        H  0.80449833  0.77800446  0.61932987     0.46600
H426        H  0.82834164  0.62019434  0.65219009     0.42000
H427        H  0.64982498  0.51126475  0.52453107     0.45500
H428        H  0.90183477  0.67007363  0.54627976     0.36900
C429        C  0.41406584  0.24679980  0.49931830    -0.27300
C430        C  0.38992931  0.21120141  0.53528938     0.02300
C431        C  0.41599004  0.20307103  0.57279275     0.30400
C432        C  0.46501380  0.22946741  0.57334122    -0.19100
C433        C  0.48927191  0.26487277  0.53732773    -0.28500
C434        C  0.46325184  0.27388683  0.50049482     0.44400
C435        C  0.33776351  0.18234926  0.53344031     0.05600
O436        O  0.39389759  0.16928850  0.60919948    -0.57000
H437        H  0.48425093  0.22168616  0.60169980     0.18500
O438        O  0.48533830  0.30922324  0.46576736    -0.63700
H439        H  0.39477524  0.25340499  0.46988900     0.17000
C440        C  0.30967008  0.20347106  0.53178694     0.29200
C441        C  0.26060739  0.17537015  0.53104111    -0.24600
C442        C  0.23846019  0.12588668  0.53153937    -0.23900
C443        C  0.26676182  0.10484808  0.53343244     0.40700
C444        C  0.31577782  0.13299978  0.53414895    -0.26400
O445        O  0.32981300  0.25159345  0.53276525    -0.58300
H446        H  0.23988111  0.19258636  0.52965749     0.16300
O447        O  0.24712219  0.05682325  0.53390533    -0.59700
H448        H  0.33676657  0.11604309  0.53461172     0.14800
H449        H  0.49272954  0.33857146  0.48503449     0.46600
H450        H  0.32502487  0.25982247  0.49748688     0.42000
H451        H  0.24537320  0.04691520  0.49719231     0.45500
H452        H  0.38553859  0.18478223  0.63702554     0.36900
C453        C  0.75176547  0.15875326  0.01807468    -0.27300
C454        C  0.79507920  0.17608213  0.04401972     0.02300
C455        C  0.81507259  0.22002641  0.07022675     0.30400
C456        C  0.79232425  0.24634008  0.06944065    -0.19100
C457        C  0.74973874  0.22967436  0.04232134    -0.28500
C458        C  0.72911036  0.18524993  0.01713189     0.44400
C459        C  0.82078182  0.14978544  0.04086935     0.05600
O460        O  0.85720728  0.23781899  0.09614073    -0.57000
H461        H  0.80835761  0.28032795  0.08923019     0.18500
O462        O  0.68678552  0.16743658  0.99166680    -0.63700
H463        H  0.73602245  0.12509918  0.99757982     0.17000
C464        C  0.80141212  0.10369751  0.05913361     0.29200
C465        C  0.82669631  0.07982177  0.05492998    -0.24600
C466        C  0.87123051  0.10102785  0.03183392    -0.23900
C467        C  0.89030323  0.14735796  0.01348854     0.40700
C468        C  0.86527044  0.17122569  0.01845044    -0.26400
O469        O  0.75840589  0.08224863  0.08238932    -0.58300
H470        H  0.81108347  0.04440150  0.06936234     0.16300
O471        O  0.93308670  0.16965124  0.98980686    -0.59700
H472        H  0.88035460  0.20651231  0.00369868     0.14800
H473        H  0.66270666  0.15284121  0.01874126     0.46600
H474        H  0.73599006  0.06049719  0.05567373     0.42000
H475        H  0.92595833  0.16211836  0.95247739     0.45500
H476        H  0.84903444  0.22447953  0.13110078     0.36900
C477        C  0.89563650  0.67467173  0.03306384    -0.27300
C478        C  0.84861330  0.65143152  0.04824165     0.02300
C479        C  0.82727875  0.67792222  0.06194013     0.30400
C480        C  0.85260561  0.72710696  0.05860598    -0.19100
C481        C  0.89934392  0.75042423  0.04185301    -0.28500
C482        C  0.92092759  0.72371301  0.02946739     0.44400
C483        C  0.82161382  0.59940247  0.04689845     0.05600
O484        O  0.78197974  0.65598772  0.07935314    -0.57000
H485        H  0.83549087  0.74699353  0.06854256     0.18500
O486        O  0.96599651  0.74489376  0.01146149    -0.63700
H487        H  0.91225843  0.65453164  0.02212325     0.17000
C488        C  0.78461706  0.57479916  0.01093588     0.29200
C489        C  0.76006026  0.52552832  0.00922509    -0.24600
C490        C  0.77195076  0.50006543  0.04300613    -0.23900
C491        C  0.80973660  0.52483846  0.07823663     0.40700
C492        C  0.83429656  0.57415380  0.07991704    -0.26400
O493        O  0.77238753  0.59863081  0.97710791    -0.58300
H494        H  0.73116900  0.50707230  0.98193510     0.16300
O495        O  0.82334494  0.50123277  0.11071104    -0.59700
H496        H  0.86330237  0.59279480  0.10707397     0.14800
H497        H  0.96283453  0.74594354  0.97343611     0.46600
H498        H  0.79476987  0.60705241  0.94827196     0.42000
H499        H  0.84329683  0.49291878  0.08955881     0.45500
H500        H  0.76270641  0.65640650  0.05008829     0.36900
C501        C  0.42600152  0.23120079  0.00320904    -0.27300
C502        C  0.40111212  0.19805525  0.04118345     0.02300
C503        C  0.42637336  0.18775573  0.07764050     0.30400
C504        C  0.47553696  0.21053617  0.07585225    -0.19100
C505        C  0.50050174  0.24386428  0.03798245    -0.28500
C506        C  0.47515339  0.25417887  0.00156618     0.44400
C507        C  0.34883788  0.17349037  0.04123010     0.05600
O508        O  0.40336087  0.15565814  0.11537567    -0.57000
H509        H  0.49426785  0.20198876  0.10408986     0.18500
O510        O  0.49802105  0.28732669  0.96477970    -0.63700
H511        H  0.40719722  0.23916591  0.97444907     0.17000
C512        C  0.32470428  0.19881386  0.04220448     0.29200
C513        C  0.27542309  0.17485711  0.03844174    -0.24600
C514        C  0.24923374  0.12543825  0.03311095    -0.23900
C515        C  0.27365373  0.10014083  0.03420805     0.40700
C516        C  0.32279781  0.12416695  0.03801218    -0.26400
O517        O  0.34901836  0.24698235  0.04778847    -0.58300
H518        H  0.25784507  0.19526723  0.03835262     0.16300
O519        O  0.25013679  0.05189729  0.03022749    -0.59700
H520        H  0.34075339  0.10410506  0.03709732     0.14800
H521        H  0.50599892  0.31783398  0.98168297     0.46600
H522        H  0.34818303  0.25897860  0.01317610     0.42000
H523        H  0.24272388  0.04096084  0.06621920     0.45500
H524        H  0.40064869  0.17410585  0.14449359     0.36900
C525        C  0.64728071  0.34851930  0.84831171    -0.27300
C526        C  0.67616939  0.33770445  0.81846854     0.02300
C527        C  0.70728409  0.32679588  0.84362131     0.30400
C528        C  0.70731830  0.32433819  0.89758858    -0.19100
C529        C  0.67506277  0.33044950  0.92769820    -0.28500
C530        C  0.64765995  0.34650704  0.90227825     0.44400
C531        C  0.67338374  0.33793171  0.76125411     0.05600
O532        O  0.73794427  0.31856058  0.81583802    -0.57000
H533        H  0.73417733  0.31957774  0.91535461     0.18500
O534        O  0.62164329  0.36121636  0.92976762    -0.63700
H535        H  0.62478357  0.35930243  0.82966325     0.17000
C536        C  0.63137848  0.30680743  0.73493971     0.29200
C537        C  0.62893736  0.30702434  0.68102271    -0.24600
C538        C  0.66687631  0.34032883  0.65201514    -0.23900
C539        C  0.71018249  0.36910674  0.67846187     0.40700
C540        C  0.71296444  0.36799780  0.73256477    -0.26400
O541        O  0.59317980  0.27415881  0.76151325    -0.58300
H542        H  0.59782162  0.27923657  0.66244633     0.16300
O543        O  0.75045921  0.39648214  0.65141790    -0.59700
H544        H  0.74616928  0.39081613  0.75217218     0.14800
H545        H  0.64218077  0.39579933  0.93418598     0.46600
H546        H  0.57213473  0.28751358  0.76458937     0.42000
H547        H  0.76321491  0.42924681  0.66487636     0.45500
H548        H  0.72007146  0.28455586  0.80629683     0.36900
C549        C  0.65692442  0.36367415  0.23044753    -0.27300
C550        C  0.66463440  0.33355069  0.26132583     0.02300
C551        C  0.67132240  0.29867410  0.23724227     0.30400
C552        C  0.67211056  0.29563560  0.18338312    -0.19100
C553        C  0.66955502  0.32891382  0.15211755    -0.28500
C554        C  0.65801964  0.36073692  0.17650135     0.44400
C555        C  0.66376976  0.33755684  0.31844014     0.05600
O556        O  0.67688777  0.26708270  0.26596937    -0.57000
H557        H  0.67246143  0.26561003  0.16682843     0.18500
O558        O  0.64689513  0.38867651  0.14800320    -0.63700
H559        H  0.64908006  0.38901470  0.24822200     0.17000
C560        C  0.69406843  0.38012406  0.34483567     0.29200
C561        C  0.69346385  0.38284466  0.39886581    -0.24600
C562        C  0.66157784  0.34404597  0.42780513    -0.23900
C563        C  0.63351735  0.30054379  0.40093192     0.40700
C564        C  0.63377091  0.29801230  0.34699887    -0.26400
O565        O  0.72656273  0.41842395  0.31832644    -0.58300
H566        H  0.72005532  0.41475511  0.41761904     0.16300
O567        O  0.60638710  0.25978289  0.42702798    -0.59700
H568        H  0.61088422  0.26463306  0.32743245     0.14800
H569        H  0.61209379  0.37122735  0.14525725     0.46600
H570        H  0.71374176  0.44001645  0.31700531     0.42000
H571        H  0.62532570  0.24402411  0.42884674     0.45500
H572        H  0.71118050  0.28228671  0.27277362     0.36900
loop_ 
_geom_bond_atom_site_label_1 
_geom_bond_atom_site_label_2 
_geom_bond_distance 
_geom_bond_site_symmetry_2 
_ccdc_geom_bond_type 
C1            C3   1.551       .  S
C1            C5   1.535       .  S
C1            C4   1.535       .  S
C1          C553   1.537       .  S
C2            C6   1.554   1_556  S
C2            C8   1.537   1_556  S
C2            C7   1.541   1_556  S
C2          C529   1.538       .  S
C3           C11   1.383       .  A
C3            C6   1.405       .  A
C4           C15   1.377       .  A
C4            C7   1.390       .  A
C5           C19   1.377       .  A
C5            C8   1.390       .  A
C6            C9   1.385   1_554  A
C7           C13   1.381   1_554  A
C8           C16   1.378   1_554  A
C9           N10   1.356   1_556  A
C9           H22   1.080       .  S
N10          C11   1.353       .  A
N10         C457   1.438       .  S
C11          H12   1.080       .  S
C13          N14   1.361   1_556  A
C13          H23   1.082       .  S
N14          C15   1.359       .  A
N14         C505   1.444       .  S
C15          H21   1.082       .  S
C16          N17   1.359   1_556  A
C16          H18   1.082       .  S
N17          C19   1.358       .  A
N17         C490   1.439       .  S
C19          H20   1.082       .  S
C24          C26   1.529       .  S
C24          C28   1.537       .  S
C24          C27   1.552       .  S
C24         C562   1.534       .  S
C25          C29   1.534       .  S
C25          C31   1.553       .  S
C25          C30   1.540       .  S
C25         C538   1.538       .  S
C26          C34   1.375       .  A
C26          C29   1.386       .  A
C27          C38   1.386       .  A
C27          C30   1.401       .  A
C28          C42   1.377       .  A
C28          C31   1.398       .  A
C29          C32   1.379       .  A
C30          C36   1.376       .  A
C31          C39   1.384       .  A
C32          N33   1.361       .  A
C32          H45   1.082       .  S
N33          C34   1.357       .  A
N33         C385   1.440       .  S
C34          H35   1.082       .  S
C36          N37   1.354       .  A
C36          H46   1.082       .  S
N37          C38   1.359       .  A
N37         C418   1.438       .  S
C38          H44   1.080       .  S
C39          N40   1.358       .  A
C39          H41   1.080       .  S
N40          C42   1.355       .  A
N40         C433   1.442       .  S
C42          H43   1.081       .  S
C47          C49   1.535   1_554  S
C47          C51   1.548   1_554  S
C47          C50   1.549   1_554  S
C47         C370   1.538       .  S
C48          C52   1.545       .  S
C48          C54   1.541       .  S
C48          C53   1.538       .  S
C48         C337   1.538       .  S
C49          C57   1.379   1_556  A
C49          C52   1.390       .  A
C50          C61   1.384   1_556  A
C50          C53   1.396       .  A
C51          C65   1.382       .  A
C51          C54   1.398       .  A
C52          C55   1.380       .  A
C53          C59   1.380       .  A
C54          C62   1.378       .  A
C55          N56   1.358       .  A
C55          H68   1.079       .  S
N56          C57   1.360   1_556  A
N56         C313   1.446       .  S
C57          H58   1.082       .  S
C59          N60   1.359       .  A
C59          H69   1.082       .  S
N60          C61   1.359   1_556  A
N60         C289   1.444       .  S
C61          H67   1.081       .  S
C62          N63   1.354       .  A
C62          H64   1.082       .  S
N63          C65   1.358       .  A
N63         C265   1.437       .  S
C65          H66   1.082   1_556  S
C70          C72   1.553       .  S
C70          C74   1.538       .  S
C70          C73   1.527       .  S
C70         C361   1.535       .  S
C71          C75   1.550       .  S
C71          C77   1.550       .  S
C71          C76   1.531       .  S
C71         C346   1.537       .  S
C72          C80   1.384       .  A
C72          C75   1.404       .  A
C73          C84   1.374       .  A
C73          C76   1.386       .  A
C74          C88   1.378       .  A
C74          C77   1.395       .  A
C75          C78   1.384       .  A
C76          C82   1.378       .  A
C77          C85   1.384       .  A
C78          N79   1.359       .  A
C78          H91   1.082       .  S
N79          C80   1.357       .  A
N79         C250   1.445       .  S
C80          H81   1.079       .  S
C82          N83   1.358       .  A
C82          H92   1.082       .  S
N83          C84   1.356       .  A
N83         C193   1.433       .  S
C84          H90   1.082       .  S
C85          N86   1.359       .  A
C85          H87   1.081       .  S
N86          C88   1.356       .  A
N86         C217   1.440       .  S
C88          H89   1.082       .  S
O93         Mg95   2.139       .  S
O93        Mg101   2.152   1_564  S
O93         C128   1.235       .  S
C94         H133   1.081       .  S
C94         O107   1.237       .  S
C94         O131   1.271       .  A
Mg95        O124   2.154   1_454  S
Mg95        O139   2.305   1_554  S
Mg95        O135   2.253   1_455  S
Mg95        O106   2.297   1_455  S
O96        Mg138   2.158   1_454  S
O96        Mg121   2.161       .  S
O96         C117   1.237       .  S
O97         C128   1.269   1_545  A
O97        Mg121   2.297       .  S
C98         O100   1.273       .  A
C98         O112   1.279       .  A
C98         C298   1.494       .  S
O99         C127   1.270       .  A
O99        Mg101   2.302   1_565  S
O100       Mg132   2.273       .  S
Mg101       O107   2.140       .  S
Mg101       O115   2.266   1_545  S
Mg101       O103   2.296   1_556  S
C102        O140   1.274       .  A
C102        O108   1.276       .  A
C102        C466   1.491       .  S
O103        C110   1.274       .  A
H104        C117   1.081       .  S
C105        H130   1.081   1_565  S
C105        O119   1.235   1_565  S
C105        O120   1.269       .  A
O106        C129   1.270       .  A
O107       Mg121   2.159   1_556  S
O108       Mg138   2.307   1_554  S
C109        O122   1.272       .  A
C109        O114   1.276       .  A
C109        C274   1.489       .  S
C110        O137   1.276       .  A
C110        C514   1.494       .  S
Mg111       O118   2.141       .  S
Mg111       O119   2.153   1_564  S
Mg111       O112   2.327   1_554  S
Mg111       O113   2.306   1_565  S
Mg111       O140   2.273   1_565  S
O113        C117   1.272   1_655  A
O114       Mg121   2.302   1_556  S
O115        C134   1.272       .  A
O116        C136   1.275       .  A
O116       Mg132   2.303   1_554  S
O118       Mg132   2.155   1_554  S
O118        C129   1.236       .  S
O119       Mg138   2.139       .  S
O120       Mg132   2.294       .  S
Mg121       O137   2.296       .  S
O122       Mg138   2.263   1_455  S
H123        C128   1.081       .  S
O124       Mg132   2.156       .  S
O124        C127   1.236   1_655  S
H125        C127   1.081   1_655  S
H126        C129   1.081       .  S
O131       Mg138   2.298   1_455  S
C134        O139   1.275       .  A
C134        C322   1.487       .  S
O135        C136   1.271       .  A
C136        C481   1.478       .  S
O141       Mg143   2.139       .  S
O141       Mg149   2.151   1_655  S
O141        C176   1.235       .  S
C142        H181   1.081       .  S
C142        O155   1.237       .  S
C142        O179   1.272       .  A
Mg143       O172   2.158   1_545  S
Mg143       O187   2.313       .  S
Mg143       O183   2.260   1_545  S
Mg143       O154   2.297   1_545  S
O144       Mg186   2.150   1_545  S
O144       Mg169   2.145       .  S
O144        C165   1.235       .  S
O145        C176   1.269   1_455  A
O145       Mg169   2.297       .  S
C146        O148   1.273       .  A
C146        O160   1.279       .  A
C146        C409   1.492       .  S
O147        C175   1.269       .  A
O147       Mg149   2.297   1_655  S
O148       Mg180   2.262       .  S
Mg149       O155   2.152       .  S
Mg149       O163   2.259   1_455  S
Mg149       O151   2.301       .  S
C150        O188   1.277       .  A
C150        O156   1.276       .  A
C150        C241   1.497       .  S
O151        C158   1.273       .  A
H152        C165   1.081       .  S
C153        H178   1.081   1_655  S
C153        O167   1.236   1_655  S
C153        O168   1.270       .  A
O154        C177   1.270       .  A
O155       Mg169   2.152       .  S
O156       Mg186   2.307       .  S
C157        O170   1.272       .  A
C157        O162   1.272       .  A
C157        C442   1.487       .  S
C158        O185   1.270       .  A
C158        C202   1.476       .  S
Mg159       O166   2.152       .  S
Mg159       O167   2.159   1_655  S
Mg159       O160   2.324       .  S
Mg159       O161   2.300   1_655  S
Mg159       O188   2.296   1_655  S
O161        C165   1.270   1_565  A
O162       Mg169   2.286       .  S
O163        C182   1.271       .  A
O164        C184   1.276       .  A
O164       Mg180   2.310       .  S
O166       Mg180   2.156       .  S
O166        C177   1.235       .  S
O167       Mg186   2.144       .  S
O168       Mg180   2.297       .  S
Mg169       O185   2.254       .  S
O170       Mg186   2.268   1_545  S
H171        C176   1.081       .  S
O172       Mg180   2.147       .  S
O172        C175   1.235   1_565  S
H173        C175   1.081   1_565  S
H174        C177   1.081       .  S
O179       Mg186   2.308   1_545  S
C182        O187   1.276       .  A
C182        C394   1.486       .  S
O183        C184   1.273       .  A
C184        C226   1.490       .  S
C189        C190   1.402       .  A
C189        C194   1.398       .  A
C189        H199   1.084       .  S
C190        C191   1.408       .  A
C190        C195   1.477       .  S
C191        C192   1.400       .  A
C191        O196   1.372       .  S
C192        C193   1.402       .  A
C192        H197   1.083       .  S
C193        C194   1.408       .  A
C194        O198   1.371       .  S
C195        C200   1.407       .  A
C195        C204   1.401       .  A
O196        H212   0.992       .  S
O198        H209   0.992       .  S
C200        C201   1.400       .  A
C200        O205   1.371       .  S
C201        C202   1.405       .  A
C201        H206   1.084       .  S
C202        C203   1.411       .  A
C203        C204   1.398       .  A
C203        O207   1.372       .  S
C204        H208   1.084       .  S
O205        H210   0.993       .  S
O207        H211   0.992       .  S
C213        C214   1.404       .  A
C213        C218   1.401       .  A
C213        H223   1.083       .  S
C214        C215   1.408       .  A
C214        C219   1.483       .  S
C215        C216   1.400       .  A
C215        O220   1.372       .  S
C216        C217   1.405       .  A
C216        H221   1.083       .  S
C217        C218   1.409       .  A
C218        O222   1.371       .  S
C219        C224   1.406       .  A
C219        C228   1.402       .  A
O220        H236   0.991       .  S
O222        H233   0.992       .  S
C224        C225   1.401       .  A
C224        O229   1.372       .  S
C225        C226   1.409       .  A
C225        H230   1.083       .  S
C226        C227   1.415       .  A
C227        C228   1.401       .  A
C227        O231   1.372       .  S
C228        H232   1.084       .  S
O229        H234   0.992       .  S
O231        H235   0.992       .  S
C237        C238   1.405       .  A
C237        C242   1.404       .  A
C237        H247   1.083       .  S
C238        C239   1.407       .  A
C238        C243   1.490       .  S
C239        C240   1.403       .  A
C239        O244   1.372       .  S
C240        C241   1.411       .  A
C240        H245   1.083       .  S
C241        C242   1.414       .  A
C242        O246   1.371       .  S
C243        C248   1.409       .  A
C243        C252   1.405       .  A
O244        H260   0.992       .  S
O246        H257   0.992       .  S
C248        C249   1.403       .  A
C248        O253   1.372       .  S
C249        C250   1.404       .  A
C249        H254   1.083       .  S
C250        C251   1.412       .  A
C251        C252   1.404       .  A
C251        O255   1.371       .  S
C252        H256   1.083       .  S
O253        H258   0.992       .  S
O255        H259   0.991       .  S
C261        C262   1.405       .  A
C261        C266   1.399       .  A
C261        H271   1.084       .  S
C262        C263   1.409       .  A
C262        C267   1.483       .  S
C263        C264   1.402       .  A
C263        O268   1.373       .  S
C264        C265   1.404       .  A
C264        H269   1.083       .  S
C265        C266   1.406       .  A
C266        O270   1.371   1_556  S
C267        C272   1.407       .  A
C267        C276   1.403       .  A
O268        H284   0.992       .  S
O270        H281   0.992   1_554  S
C272        C273   1.398       .  A
C272        O277   1.372       .  S
C273        C274   1.408       .  A
C273        H278   1.083       .  S
C274        C275   1.415       .  A
C275        C276   1.401       .  A
C275        O279   1.371       .  S
C276        H280   1.084       .  S
O277        H282   0.992       .  S
O279        H283   0.992       .  S
C285        C286   1.404       .  A
C285        C290   1.401       .  A
C285        H295   1.083   1_556  S
C286        C287   1.412       .  A
C286        C291   1.492       .  S
C287        C288   1.405       .  A
C287        O292   1.371       .  S
C288        C289   1.405       .  A
C288        H293   1.083       .  S
C289        C290   1.411       .  A
C290        O294   1.371   1_556  S
C291        C296   1.410       .  A
C291        C300   1.404       .  A
O292        H308   0.991       .  S
O294        H305   0.992       .  S
C296        C297   1.404       .  A
C296        O301   1.372       .  S
C297        C298   1.407       .  A
C297        H302   1.083       .  S
C298        C299   1.416       .  A
C299        C300   1.404       .  A
C299        O303   1.372       .  S
C300        H304   1.083       .  S
O301        H306   0.992       .  S
O303        H307   0.992   1_556  S
C309        C310   1.400       .  A
C309        C314   1.401       .  A
C309        H319   1.084       .  S
C310        C311   1.407   1_556  A
C310        C315   1.481       .  S
C311        C312   1.401       .  A
C311        O316   1.371       .  S
C312        C313   1.407   1_554  A
C312        H317   1.082       .  S
C313        C314   1.415       .  A
C314        O318   1.372       .  S
C315        C320   1.407       .  A
C315        C324   1.401       .  A
O316        H332   0.991       .  S
O318        H329   0.992       .  S
C320        C321   1.401       .  A
C320        O325   1.372       .  S
C321        C322   1.408       .  A
C321        H326   1.083       .  S
C322        C323   1.413       .  A
C323        C324   1.400       .  A
C323        O327   1.371       .  S
C324        H328   1.084       .  S
O325        H330   0.992   1_556  S
O327        H331   0.992       .  S
C333        C334   1.403       .  A
C333        C338   1.404       .  A
C333        H343   1.083       .  S
C334        C335   1.403       .  A
C334        C339   1.484       .  S
C335        C336   1.398       .  A
C335        O340   1.372       .  S
C336        C337   1.409       .  A
C336        H341   1.078       .  S
C337        C338   1.418       .  A
C338        O342   1.371       .  S
C339        C344   1.403       .  A
C339        C348   1.403       .  A
O340        H356   0.992       .  S
O342        H353   0.992       .  S
C344        C345   1.399       .  A
C344        O349   1.372       .  S
C345        C346   1.412       .  A
C345        H350   1.079       .  S
C346        C347   1.417       .  A
C347        C348   1.404       .  A
C347        O351   1.370       .  S
C348        H352   1.084       .  S
O349        H354   0.992       .  S
O351        H355   0.992       .  S
C357        C358   1.400       .  A
C357        C362   1.400       .  A
C357        H367   1.084       .  S
C358        C359   1.405       .  A
C358        C363   1.484       .  S
C359        C360   1.401       .  A
C359        O364   1.371       .  S
C360        C361   1.409       .  A
C360        H365   1.075       .  S
C361        C362   1.419       .  A
C362        O366   1.372       .  S
C363        C368   1.403       .  A
C363        C372   1.401       .  A
O364        H380   0.992       .  S
O366        H377   0.992       .  S
C368        C369   1.400       .  A
C368        O373   1.372       .  S
C369        C370   1.410       .  A
C369        H374   1.077       .  S
C370        C371   1.420       .  A
C371        C372   1.403       .  A
C371        O375   1.370       .  S
C372        H376   1.084       .  S
O373        H378   0.991       .  S
O375        H379   0.991       .  S
C381        C382   1.403       .  A
C381        C386   1.400       .  A
C381        H391   1.084       .  S
C382        C383   1.408       .  A
C382        C387   1.483       .  S
C383        C384   1.400       .  A
C383        O388   1.371       .  S
C384        C385   1.404       .  A
C384        H389   1.083       .  S
C385        C386   1.411       .  A
C386        O390   1.371       .  S
C387        C392   1.407       .  A
C387        C396   1.402       .  A
O388        H404   0.991       .  S
O390        H401   0.992       .  S
C392        C393   1.401       .  A
C392        O397   1.372       .  S
C393        C394   1.406       .  A
C393        H398   1.083       .  S
C394        C395   1.415       .  A
C395        C396   1.401       .  A
C395        O399   1.372       .  S
C396        H400   1.084       .  S
O397        H402   0.992       .  S
O399        H403   0.992       .  S
C405        C406   1.402       .  A
C405        C410   1.402       .  A
C405        H415   1.084       .  S
C406        C407   1.407       .  A
C406        C411   1.484       .  S
C407        C408   1.401       .  A
C407        O412   1.372       .  S
C408        C409   1.407       .  A
C408        H413   1.083       .  S
C409        C410   1.417       .  A
C410        O414   1.371       .  S
C411        C416   1.408       .  A
C411        C420   1.405       .  A
O412        H428   0.992       .  S
O414        H425   0.992       .  S
C416        C417   1.399       .  A
C416        O421   1.371       .  S
C417        C418   1.403       .  A
C417        H422   1.083       .  S
C418        C419   1.408       .  A
C419        C420   1.403       .  A
C419        O423   1.371       .  S
C420        H424   1.084       .  S
O421        H426   0.991       .  S
O423        H427   0.991       .  S
C429        C430   1.406       .  A
C429        C434   1.402       .  A
C429        H439   1.083       .  S
C430        C431   1.409       .  A
C430        C435   1.487       .  S
C431        C432   1.396       .  A
C431        O436   1.372       .  S
C432        C433   1.404       .  A
C432        H437   1.083       .  S
C433        C434   1.411       .  A
C434        O438   1.371       .  S
C435        C440   1.408       .  A
C435        C444   1.405       .  A
O436        H452   0.991       .  S
O438        H449   0.992       .  S
C440        C441   1.401       .  A
C440        O445   1.372       .  S
C441        C442   1.408       .  A
C441        H446   1.084       .  S
C442        C443   1.412       .  A
C443        C444   1.399       .  A
C443        O447   1.372       .  S
C444        H448   1.083       .  S
O445        H450   0.992       .  S
O447        H451   0.992       .  S
C453        C454   1.405       .  A
C453        C458   1.402       .  A
C453        H463   1.083   1_554  S
C454        C455   1.409       .  A
C454        C459   1.483       .  S
C455        C456   1.399       .  A
C455        O460   1.372       .  S
C456        C457   1.402       .  A
C456        H461   1.083       .  S
C457        C458   1.408       .  A
C458        O462   1.371   1_554  S
C459        C464   1.407       .  A
C459        C468   1.401       .  A
O460        H476   0.991       .  S
O462        H473   0.992   1_556  S
C464        C465   1.404       .  A
C464        O469   1.372       .  S
C465        C466   1.410       .  A
C465        H470   1.083       .  S
C466        C467   1.415       .  A
C467        C468   1.398       .  A
C467        O471   1.372   1_554  S
C468        H472   1.084       .  S
O469        H474   0.992       .  S
O471        H475   0.992       .  S
C477        C478   1.400       .  A
C477        C482   1.398       .  A
C477        H487   1.084       .  S
C478        C479   1.407       .  A
C478        C483   1.477       .  S
C479        C480   1.401       .  A
C479        O484   1.372       .  S
C480        C481   1.405       .  A
C480        H485   1.084       .  S
C481        C482   1.412       .  A
C482        O486   1.372       .  S
C483        C488   1.407       .  A
C483        C492   1.402       .  A
O484        H500   0.992       .  S
O486        H497   0.994   1_554  S
C488        C489   1.399       .  A
C488        O493   1.372   1_554  S
C489        C490   1.404       .  A
C489        H494   1.083   1_554  S
C490        C491   1.411       .  A
C491        C492   1.400       .  A
C491        O495   1.371       .  S
C492        H496   1.084       .  S
O493        H498   0.992       .  S
O495        H499   0.991       .  S
C501        C502   1.404       .  A
C501        C506   1.401       .  A
C501        H511   1.083   1_554  S
C502        C503   1.410       .  A
C502        C507   1.489       .  S
C503        C504   1.402       .  A
C503        O508   1.371       .  S
C504        C505   1.406       .  A
C504        H509   1.083       .  S
C505        C506   1.411       .  A
C506        O510   1.371   1_554  S
C507        C512   1.409       .  A
C507        C516   1.402       .  A
O508        H524   0.991       .  S
O510        H521   0.992       .  S
C512        C513   1.405       .  A
C512        O517   1.372       .  S
C513        C514   1.408       .  A
C513        H518   1.083       .  S
C514        C515   1.417       .  A
C515        C516   1.401       .  A
C515        O519   1.372       .  S
C516        H520   1.084       .  S
O517        H522   0.992       .  S
O519        H523   0.992       .  S
C525        C526   1.401       .  A
C525        C530   1.401       .  A
C525        H535   1.084       .  S
C526        C527   1.405       .  A
C526        C531   1.485       .  S
C527        C528   1.402       .  A
C527        O532   1.372       .  S
C528        C529   1.410       .  A
C528        H533   1.075       .  S
C529        C530   1.418       .  A
C530        O534   1.371       .  S
C531        C536   1.404       .  A
C531        C540   1.402       .  A
O532        H548   0.992       .  S
O534        H545   0.992       .  S
C536        C537   1.400       .  A
C536        O541   1.372       .  S
C537        C538   1.409       .  A
C537        H542   1.075       .  S
C538        C539   1.418       .  A
C539        C540   1.407       .  A
C539        O543   1.374       .  S
C540        H544   1.083       .  S
O541        H546   0.991       .  S
O543        H547   0.994       .  S
C549        C550   1.401       .  A
C549        C554   1.401       .  A
C549        H559   1.083       .  S
C550        C551   1.406       .  A
C550        C555   1.485       .  S
C551        C552   1.399       .  A
C551        O556   1.372       .  S
C552        C553   1.408       .  A
C552        H557   1.074       .  S
C553        C554   1.418       .  A
C554        O558   1.372       .  S
C555        C560   1.406       .  A
C555        C564   1.400       .  A
O556        H572   0.992       .  S
O558        H569   0.992       .  S
C560        C561   1.402       .  A
C560        O565   1.372       .  S
C561        C562   1.408       .  A
C561        H566   1.076       .  S
C562        C563   1.419       .  A
C563        C564   1.399       .  A
C563        O567   1.372       .  S
C564        H568   1.084       .  S
O565        H570   0.992       .  S
O567        H571   0.992       .  S
