geometry optimzed in LAMMPS
_audit_creation_date              2020-12-01 
_audit_creation_method            'lammps2cif' 
_symmetry_space_group_name_H-M    'P1' 
_symmetry_Int_Tables_number       1 
_symmetry_cell_setting            triclinic 
loop_ 
_symmetry_equiv_pos_as_xyz 
  x,y,z 
_cell_length_a                    58.96372621 
_cell_length_b                    59.00991665907775 
_cell_length_c                    36.030222023264905 
_cell_angle_alpha                 89.95750624811727 
_cell_angle_beta                  90.24411004173837 
_cell_angle_gamma                 89.86856721034654 
loop_ 
_atom_site_label 
_atom_site_type_symbol 
_atom_site_fract_x 
_atom_site_fract_y 
_atom_site_fract_z 
_atom_site_charge 
N1          N  0.23586646  0.49896271  0.13478754    -0.02300
C2          C  0.23134929  0.48128730  0.11167843     0.00300
C3          C  0.22484142  0.48918280  0.07707938    -0.22600
C4          C  0.22473936  0.51245929  0.07910286    -0.22800
C5          C  0.23126468  0.51796269  0.11483075     0.00200
H6          H  0.22071580  0.47907469  0.05294834     0.14000
H7          H  0.22058122  0.52412037  0.05688391     0.14000
N8          N  0.25667988  0.49269744  0.40961352    -0.02300
C9          C  0.25521058  0.47521843  0.43403013     0.00300
C10         C  0.25557887  0.48312770  0.47011309    -0.22600
C11         C  0.25632577  0.50636934  0.46796569    -0.22800
C12         C  0.25656863  0.51184008  0.43067201     0.00200
H13         H  0.25513567  0.47312914  0.49528338     0.14000
H14         H  0.25608854  0.51806872  0.49108213     0.14000
N15         N  0.00370149  0.75165552  0.37087637    -0.02300
C16         C  0.02200618  0.74692842  0.34912269     0.00300
C17         C  0.01496933  0.73939615  0.31461470    -0.22600
C18         C  0.99171736  0.74008682  0.31447486    -0.22800
C19         C  0.98519027  0.74773425  0.34903436     0.00200
H20         H  0.02568638  0.73384834  0.29206351     0.14000
H21         H  0.98067585  0.73497833  0.29195288     0.14000
N22         N  0.00275626  0.76124105  0.14915196    -0.02300
C23         C  0.98384139  0.75780774  0.17005040     0.00300
C24         C  0.98965297  0.75562582  0.20707726    -0.22600
C25         C  0.01285687  0.75707332  0.20915715    -0.22800
C26         C  0.02049229  0.76043720  0.17343634     0.00200
H27         H  0.97817198  0.75312278  0.23004176     0.14000
H28         H  0.02313460  0.75569453  0.23396912     0.14000
Zn29       Zn  0.27317939  0.72572193  0.43215722     1.49700
Zn30       Zn  0.23489989  0.76384787  0.43076642     1.49400
Zn31       Zn  0.27353428  0.76348252  0.36793130     1.49100
Zn32       Zn  0.23556000  0.72514864  0.36693014     1.49500
O33         O  0.25422941  0.74451195  0.39945053    -1.82900
O34         O  0.26737524  0.73220139  0.48703299    -0.73600
O35         O  0.24164024  0.79705450  0.42173709    -0.73400
O36         O  0.30656416  0.75685002  0.37749384    -0.72900
O37         O  0.23996653  0.75808609  0.48592192    -0.73600
O38         O  0.30648266  0.73082347  0.42174414    -0.73200
O39         O  0.26831880  0.79656338  0.37867346    -0.73800
O40         O  0.24171742  0.73116497  0.31200588    -0.73200
O41         O  0.20175676  0.75843570  0.41878618    -0.73900
O42         O  0.26746581  0.75858153  0.31300658    -0.73300
O43         O  0.20234133  0.73207937  0.37518609    -0.73800
O44         O  0.24099256  0.69163963  0.37804446    -0.73700
O45         O  0.26668508  0.69268120  0.42305365    -0.73500
C46         C  0.25359759  0.74530873  0.50387251     0.78300
C47         C  0.25539498  0.80746075  0.40051202     0.78800
C48         C  0.31720908  0.74357262  0.39927364     0.77800
C49         C  0.25450612  0.74518014  0.29513640     0.78100
C50         C  0.19131561  0.74561210  0.39606613     0.79300
C51         C  0.25375546  0.68149091  0.40150052     0.78300
Zn52       Zn  0.27249685  0.76700605  0.18268847     1.49700
Zn53       Zn  0.27219097  0.72885204  0.11818895     1.49400
Zn54       Zn  0.23332389  0.73010825  0.18109335     1.49100
Zn55       Zn  0.23518271  0.76837551  0.11671827     1.49500
O56         O  0.25332115  0.74855645  0.14961460    -1.82900
O57         O  0.30567296  0.76137916  0.17203200    -0.73600
O58         O  0.26498586  0.69580741  0.12778971    -0.73400
O59         O  0.24041359  0.73359681  0.23611752    -0.72900
O60         O  0.30556067  0.73442854  0.12867199    -0.73600
O61         O  0.26724372  0.75990928  0.23733561    -0.73200
O62         O  0.23691428  0.69674264  0.16894610    -0.73800
O63         O  0.20174122  0.76568392  0.12895593    -0.73200
O64         O  0.26653179  0.73437228  0.06297788    -0.73900
O65         O  0.20059785  0.73989378  0.17386648    -0.73300
O66         O  0.23984182  0.76100713  0.06173227    -0.73800
O67         O  0.24313137  0.80135517  0.12554679    -0.73700
O68         O  0.26622008  0.80038895  0.17464417    -0.73500
C69         C  0.31608192  0.74792881  0.15030302     0.78300
C70         C  0.25047088  0.68578169  0.14809390     0.78800
C71         C  0.25409439  0.74620721  0.25408800     0.77800
C72         C  0.19068853  0.75420739  0.15278840     0.78100
C73         C  0.25306838  0.74730265  0.04494710     0.79300
C74         C  0.25482962  0.81134618  0.15041735     0.78300
N75         N  0.50324785  0.75649293  0.13065947    -0.02300
C76         C  0.48397538  0.75758293  0.10974841     0.00300
C77         C  0.48904245  0.76460837  0.07411545    -0.22600
C78         C  0.51215174  0.76703968  0.07245949    -0.22800
C79         C  0.52042310  0.76238583  0.10756904     0.00200
H80         H  0.47718559  0.76709330  0.05149346     0.14000
H81         H  0.52181359  0.77096902  0.04789744     0.14000
N82         N  0.50483183  0.74374649  0.40813331    -0.02300
C83         C  0.52328845  0.74399897  0.43097148     0.00300
C84         C  0.51664662  0.74561018  0.46763991    -0.22600
C85         C  0.49338569  0.74603225  0.46763221    -0.22800
C86         C  0.48660729  0.74527049  0.43093870     0.00200
H87         H  0.52762825  0.74657803  0.49170274     0.14000
H88         H  0.48254312  0.74708255  0.49166568     0.14000
Zn89       Zn  0.77121464  0.73198672  0.35794271     1.49700
Zn90       Zn  0.77331109  0.76964115  0.42325905     1.49400
Zn91       Zn  0.73523251  0.77197045  0.35799512     1.49100
Zn92       Zn  0.73313091  0.73339805  0.42159677     1.49500
O93         O  0.75321895  0.75180117  0.39031869    -1.82900
O94         O  0.80443468  0.73852670  0.36492724    -0.73600
O95         O  0.76752529  0.80337057  0.41594171    -0.73400
O96         O  0.74112817  0.76651227  0.30291373    -0.72900
O97         O  0.80644446  0.76371579  0.41069362    -0.73600
O98         O  0.76431338  0.73677994  0.30310375    -0.73200
O99         O  0.74256832  0.80457888  0.36939374    -0.73800
O100        O  0.70039599  0.74147584  0.41156460    -0.73200
O101        O  0.76804658  0.76243644  0.47808052    -0.73900
O102        O  0.70163313  0.76767122  0.36707081    -0.73300
O103        O  0.73887731  0.73862212  0.47669590    -0.73800
O104        O  0.73794706  0.69986261  0.41165420    -0.73700
O105        O  0.76574778  0.69900640  0.36995690    -0.73500
C106        C  0.81595065  0.75132156  0.38624330     0.78300
C107        C  0.75530132  0.81446084  0.39295316     0.78800
C108        C  0.75263005  0.75156201  0.28571442     0.77800
C109        C  0.69054876  0.75515864  0.38934605     0.78100
C110        C  0.75340480  0.75024939  0.49466594     0.79300
C111        C  0.75179255  0.68896816  0.39121552     0.78300
Zn112      Zn  0.73258801  0.76879232  0.10710780     1.49700
Zn113      Zn  0.73284976  0.73190069  0.17324657     1.49400
Zn114      Zn  0.77122957  0.73114716  0.10881980     1.49100
Zn115      Zn  0.77051015  0.77031065  0.17182472     1.49500
O116        O  0.75188414  0.75048720  0.14023791    -1.82900
O117        O  0.69961760  0.76236710  0.11691365    -0.73600
O118        O  0.73763367  0.69866415  0.16264484    -0.73400
O119        O  0.76590416  0.73673837  0.05337021    -0.72900
O120        O  0.69965552  0.73863892  0.16488453    -0.73600
O121        O  0.73872944  0.76288708  0.05250226    -0.73200
O122        O  0.76473496  0.69795500  0.11964883    -0.73800
O123        O  0.80387526  0.76500760  0.16138533    -0.73200
O124        O  0.73950938  0.73735789  0.22797900    -0.73900
O125        O  0.80447541  0.73759725  0.11885038    -0.73300
O126        O  0.76502858  0.76500060  0.22709361    -0.73800
O127        O  0.76309193  0.80315539  0.16160373    -0.73700
O128        O  0.73736150  0.80214022  0.11636951    -0.73500
C129        C  0.68911956  0.75069970  0.14111374     0.78300
C130        C  0.75077717  0.68784677  0.14094769     0.78800
C131        C  0.75248655  0.74985135  0.03563938     0.77800
C132        C  0.81466708  0.75152070  0.14014914     0.78100
C133        C  0.75238355  0.75129958  0.24482750     0.79300
C134        C  0.74978256  0.81316838  0.13893077     0.78300
N135        N  0.74805244  0.50019169  0.13493727    -0.02300
C136        C  0.74694553  0.51884309  0.11270285     0.00300
C137        C  0.74081561  0.51260067  0.07703528    -0.22600
C138        C  0.73876128  0.48942495  0.07694703    -0.22800
C139        C  0.74289764  0.48224541  0.11285299     0.00200
H140        H  0.73836764  0.52373800  0.05348746     0.14000
H141        H  0.73501715  0.47898546  0.05308539     0.14000
N142        N  0.75226997  0.50221781  0.41325268    -0.02300
C143        C  0.75610000  0.52040139  0.43570742     0.00300
C144        C  0.75880876  0.51338051  0.47205919    -0.22600
C145        C  0.75728005  0.49016227  0.47207758    -0.22800
C146        C  0.75329049  0.48373030  0.43582874     0.00200
H147        H  0.76199221  0.52401363  0.49588243     0.14000
H148        H  0.75932100  0.47908878  0.49580554     0.14000
N149        N  0.74364890  0.00063599  0.38060354    -0.02300
C150        C  0.74265292  0.01885628  0.35738949     0.00300
C151        C  0.73974865  0.01163052  0.32121979    -0.22600
C152        C  0.73965833  0.98836660  0.32193286    -0.22800
C153        C  0.74143777  0.98200900  0.35870769     0.00200
H154        H  0.73744599  0.02210388  0.29695607     0.14000
H155        H  0.73871069  0.97736128  0.29806045     0.14000
N156        N  0.73885664  0.99996173  0.15719698    -0.02300
C157        C  0.74237304  0.01791844  0.18014558     0.00300
C158        C  0.74902050  0.01049551  0.21493707    -0.22600
C159        C  0.74903023  0.98724303  0.21386151    -0.22800
C160        C  0.74267342  0.98123834  0.17833089     0.00200
H161        H  0.75392857  0.02095535  0.23818667     0.14000
H162        H  0.75401956  0.97589702  0.23603425     0.14000
Zn163      Zn  0.76761444  0.27014486  0.36643863     1.49700
Zn164      Zn  0.76724501  0.23007663  0.42889868     1.49400
Zn165      Zn  0.73094288  0.27040661  0.43183393     1.49100
Zn166      Zn  0.72826738  0.23371049  0.36560783     1.49500
O167        O  0.74860786  0.25101253  0.39830894    -1.82900
O168        O  0.80041407  0.26324793  0.37693227    -0.73600
O169        O  0.76262515  0.23556374  0.48451932    -0.73400
O170        O  0.73751526  0.30361977  0.42274312    -0.72900
O171        O  0.80079090  0.23509660  0.41791436    -0.73600
O172        O  0.76256829  0.30350467  0.37704865    -0.73200
O173        O  0.73754508  0.26373504  0.48619624    -0.73800
O174        O  0.69548456  0.24134792  0.37605099    -0.73200
O175        O  0.75869712  0.19703458  0.41834613    -0.73900
O176        O  0.69755713  0.26531757  0.42350900    -0.73300
O177        O  0.73189305  0.20032570  0.37566306    -0.73800
O178        O  0.73446662  0.23909157  0.31055080    -0.73700
O179        O  0.76199043  0.26474418  0.31105936    -0.73500
C180        C  0.81123517  0.24916551  0.39724426     0.78300
C181        C  0.75034279  0.24947199  0.50264436     0.78800
C182        C  0.75025668  0.31421206  0.40011844     0.77800
C183        C  0.68600476  0.25357268  0.40067172     0.78100
C184        C  0.74408985  0.18796143  0.39668028     0.79300
C185        C  0.74834889  0.25187439  0.29346438     0.78300
Zn186      Zn  0.73097190  0.27013942  0.17849258     1.49700
Zn187      Zn  0.77013033  0.26740929  0.11581250     1.49400
Zn188      Zn  0.76762277  0.23056496  0.18149243     1.49100
Zn189      Zn  0.73049908  0.23087609  0.11577183     1.49500
O190        O  0.74974682  0.24981078  0.14790169    -1.82900
O191        O  0.73778609  0.30307054  0.16592813    -0.73600
O192        O  0.80304237  0.26018456  0.12695544    -0.73400
O193        O  0.76141187  0.23710707  0.23611508    -0.72900
O194        O  0.76537795  0.30084417  0.12462165    -0.73600
O195        O  0.73651469  0.26542936  0.23420309    -0.73200
O196        O  0.80095560  0.23509183  0.17232465    -0.73800
O197        O  0.73678082  0.19764547  0.12499167    -0.73200
O198        O  0.76442061  0.26146611  0.06071933    -0.73900
O199        O  0.76112987  0.19758726  0.17195730    -0.73300
O200        O  0.73585872  0.23693875  0.06063864    -0.73800
O201        O  0.69734101  0.23651927  0.12713048    -0.73700
O202        O  0.69756334  0.26397264  0.16887245    -0.73500
C203        C  0.75198278  0.31266181  0.14434684     0.78300
C204        C  0.81272053  0.24705056  0.15029267     0.78800
C205        C  0.74881003  0.25150873  0.25248619     0.77800
C206        C  0.74908952  0.18696220  0.14836913     0.78100
C207        C  0.75011496  0.24921334  0.04336393     0.79300
C208        C  0.68668595  0.25006321  0.14851153     0.78300
N209        N  0.49852885  0.25703915  0.12814209    -0.02300
C210        C  0.51763625  0.25456045  0.10736231     0.00300
C211        C  0.51196199  0.24822491  0.07161999    -0.22600
C212        C  0.48873833  0.24723633  0.06994056    -0.22800
C213        C  0.48088954  0.25203516  0.10510711     0.00200
H214        H  0.52359695  0.24450743  0.04932318     0.14000
H215        H  0.47869390  0.24337812  0.04565727     0.14000
N216        N  0.49896302  0.26193837  0.40460314    -0.02300
C217        C  0.47999859  0.25770937  0.42487189     0.00300
C218        C  0.48578281  0.24992811  0.45982834    -0.22600
C219        C  0.50901362  0.24978902  0.46168981    -0.22800
C220        C  0.51666868  0.25736766  0.42777879     0.00200
H221        H  0.47423813  0.24416162  0.48104648     0.14000
H222        H  0.51930093  0.24372524  0.48451436     0.14000
N223        N  0.25097572  0.99437118  0.37667395    -0.02300
C224        C  0.25489531  0.97514975  0.35678091     0.00300
C225        C  0.26258609  0.98045210  0.32163925    -0.22600
C226        C  0.26288938  0.00364998  0.31923838    -0.22800
C227        C  0.25562251  0.01176822  0.35309401     0.00200
H228        H  0.26750766  0.96863619  0.30016359     0.14000
H229        H  0.26823100  0.01358257  0.29561606     0.14000
N230        N  0.24969073  0.99850042  0.15801699    -0.02300
C231        C  0.24866794  0.98085279  0.18234938     0.00300
C232        C  0.24727287  0.98875445  0.21833235    -0.22600
C233        C  0.24681254  0.01199033  0.21626899    -0.22800
C234        C  0.24771212  0.01752306  0.17905373     0.00200
H235        H  0.24642676  0.97863826  0.24330809     0.14000
H236        H  0.24606977  0.02359982  0.23943921     0.14000
N237        N  0.99824917  0.25042224  0.37517953    -0.02300
C238        C  0.97960503  0.25074497  0.35288300     0.00300
C239        C  0.98583145  0.25266689  0.31613276    -0.22600
C240        C  0.00909715  0.25235538  0.31545252    -0.22800
C241        C  0.01635144  0.25045047  0.35185420     0.00200
H242        H  0.97464825  0.25429498  0.29241061     0.14000
H243        H  0.01965949  0.25349560  0.29107297     0.14000
N244        N  0.00067980  0.23961731  0.15156565    -0.02300
C245        C  0.01912318  0.23660364  0.17375888     0.00300
C246        C  0.01264823  0.23381388  0.21024552    -0.22600
C247        C  0.98939360  0.23414220  0.21051703    -0.22800
C248        C  0.98242178  0.23739392  0.17424120     0.00200
H249        H  0.02361511  0.23224980  0.23421042     0.14000
H250        H  0.97865480  0.23245447  0.23460771     0.14000
Zn251      Zn  0.26708827  0.26489073  0.35009393     1.49700
Zn252      Zn  0.22959994  0.26294516  0.41472019     1.49400
Zn253      Zn  0.23080723  0.22548143  0.34976727     1.49100
Zn254      Zn  0.26925526  0.22615084  0.41367552     1.49500
O255        O  0.24919573  0.24482230  0.38215113    -1.82900
O256        O  0.26107785  0.29772739  0.36208200    -0.73600
O257        O  0.19638016  0.25736890  0.40325205    -0.73400
O258        O  0.23589436  0.23199091  0.29459555    -0.72900
O259        O  0.23594968  0.29621872  0.40784151    -0.73600
O260        O  0.26079851  0.26013480  0.29520571    -0.73200
O261        O  0.19766622  0.23065439  0.36017329    -0.73800
O262        O  0.26451767  0.19273568  0.40297088    -0.73200
O263        O  0.23543669  0.25631149  0.46920913    -0.73900
O264        O  0.23801542  0.19250595  0.35906911    -0.73300
O265        O  0.26389413  0.23157572  0.46905399    -0.73800
O266        O  0.30205163  0.23359348  0.40289918    -0.73700
O267        O  0.30036929  0.25958043  0.35880342    -0.73500
C268        C  0.24860434  0.30746000  0.38601789     0.78300
C269        C  0.18634772  0.24393406  0.38087174     0.78800
C270        C  0.24817267  0.24635423  0.27749624     0.77800
C271        C  0.25160281  0.18199162  0.38070770     0.78100
C272        C  0.24977487  0.24398952  0.48651061     0.79300
C273        C  0.31193932  0.24709484  0.38053828     0.78300
Zn274      Zn  0.23024891  0.22778032  0.16318860     1.49700
Zn275      Zn  0.26590541  0.26835880  0.16481010     1.49400
Zn276      Zn  0.26967287  0.22930391  0.10128953     1.49100
Zn277      Zn  0.22950904  0.26527816  0.09833861     1.49500
O278        O  0.24893103  0.24760599  0.13198767    -1.82900
O279        O  0.23567489  0.23303285  0.21842802    -0.73600
O280        O  0.29958781  0.26486989  0.15591159    -0.73400
O281        O  0.26608606  0.19573240  0.11253621    -0.72900
O282        O  0.26015053  0.26158921  0.21956263    -0.73600
O283        O  0.23764091  0.19487725  0.15302246    -0.73200
O284        O  0.30214085  0.23858863  0.11182031    -0.73800
O285        O  0.23581724  0.25863071  0.04414980    -0.73200
O286        O  0.25771943  0.30137653  0.15421893    -0.73900
O287        O  0.26384666  0.23345379  0.04581312    -0.73300
O288        O  0.23378031  0.29868305  0.10708481    -0.73800
O289        O  0.19655019  0.25883904  0.10736398    -0.73700
O290        O  0.19697026  0.23348292  0.15306230    -0.73500
C291        C  0.24794315  0.24704060  0.23638482     0.78300
C292        C  0.31136657  0.25263104  0.13413933     0.78800
C293        C  0.25248166  0.18483362  0.13332369     0.77800
C294        C  0.24981519  0.24566306  0.02762456     0.78100
C295        C  0.24500660  0.31074586  0.12984014     0.79300
C296        C  0.18625393  0.24609442  0.13018137     0.78300
C297        C  0.08117574  0.22265175  0.15753405    -0.10700
C298        C  0.08897331  0.24329866  0.14342211     0.11900
C299        C  0.07341357  0.26090500  0.13525007    -0.02500
C300        C  0.05052890  0.25789666  0.14489755    -0.05200
C301        C  0.04302383  0.23780795  0.16164841    -0.16000
C302        C  0.05832928  0.21949151  0.16684697     0.02900
C303        C  0.11377550  0.24605764  0.13948996     0.12900
C304        C  0.08102116  0.28269898  0.11675447     0.63500
H305        H  0.03837504  0.27140350  0.14022893     0.12900
C306        C  0.05073659  0.19663118  0.18175761     0.55600
H307        H  0.09342048  0.20925798  0.16249165     0.08700
C308        C  0.12765397  0.25092025  0.17063239    -0.05100
C309        C  0.15127329  0.25104228  0.16606166    -0.05900
C310        C  0.16125308  0.24662188  0.13156533    -0.15400
C311        C  0.14735066  0.24227866  0.10016193    -0.01000
C312        C  0.12366264  0.24187623  0.10484446    -0.08600
C313        C  0.11759599  0.25533894  0.20875632     0.65700
H314        H  0.16224353  0.25432848  0.18964306     0.11100
C315        C  0.15745305  0.23720541  0.06236229     0.64100
H316        H  0.11262598  0.23789153  0.08165735     0.08500
F317        F  0.04539595  0.19836873  0.21891476    -0.19000
F318        F  0.06757813  0.18037983  0.17836202    -0.15200
F319        F  0.03195341  0.18912502  0.16227182    -0.18700
F320        F  0.09010720  0.27785959  0.08234600    -0.22100
F321        F  0.09728330  0.29329191  0.13830852    -0.23500
F322        F  0.06315914  0.29766599  0.11161784    -0.17500
F323        F  0.14095798  0.23145428  0.03658651    -0.20000
F324        F  0.17251305  0.21927258  0.06519795    -0.21200
F325        F  0.16872622  0.25607172  0.04921604    -0.18400
F326        F  0.13391863  0.26232246  0.23397136    -0.18400
F327        F  0.10781098  0.23573739  0.22220424    -0.22300
F328        F  0.10126144  0.27213204  0.20660082    -0.23900
C329        C  0.12481151  0.23840891  0.34742259    -0.10700
C330        C  0.11308828  0.24726334  0.37782423     0.11900
C331        C  0.12514608  0.25391403  0.40995292    -0.02500
C332        C  0.14898121  0.25218291  0.40994353    -0.05200
C333        C  0.16102083  0.24400051  0.37893949    -0.16000
C334        C  0.14861074  0.23696482  0.34689223     0.02900
C335        C  0.08809430  0.24950684  0.37442787     0.12900
C336        C  0.11282963  0.26284014  0.44391054     0.63500
H337        H  0.15841463  0.25727953  0.43437882     0.12900
C338        C  0.16004913  0.22867584  0.31160247     0.55600
H339        H  0.11496793  0.23303384  0.32356030     0.08700
C340        C  0.07804300  0.26722315  0.35356259    -0.05100
C341        C  0.05443009  0.26714897  0.34842649    -0.05900
C342        C  0.04072111  0.24964303  0.36224822    -0.15400
C343        C  0.05095945  0.23145866  0.38203463    -0.01000
C344        C  0.07445993  0.23221914  0.38890931    -0.08600
C345        C  0.09223519  0.28577922  0.33588474     0.65700
H346        H  0.04643724  0.28060530  0.33259686     0.11100
C347        C  0.03843135  0.21035155  0.39451023     0.64100
H348        H  0.08253718  0.21845515  0.40395684     0.08500
F349        F  0.14464241  0.22523338  0.28307468    -0.19000
F350        F  0.17086453  0.20824145  0.31822031    -0.15200
F351        F  0.17557909  0.24457964  0.29952593    -0.18700
F352        F  0.09865132  0.24627899  0.45779438    -0.22100
F353        F  0.10001742  0.28164647  0.43447844    -0.23500
F354        F  0.12775615  0.26905320  0.47184881    -0.17500
F355        F  0.05134881  0.19129170  0.38698799    -0.20000
F356        F  0.01785234  0.20755094  0.37669255    -0.21200
F357        F  0.03490297  0.21150135  0.43232852    -0.18400
F358        F  0.07885841  0.30236510  0.31957923    -0.18400
F359        F  0.10589843  0.27662581  0.30863595    -0.22300
F360        F  0.10572453  0.29605066  0.36240796    -0.23900
C361        C  0.01214348  0.26254539  0.47556658    -0.10700
C362        C  0.00004053  0.24532251  0.49341613     0.11900
C363        C  0.98554976  0.23115777  0.47240096    -0.02500
C364        C  0.98597462  0.23287920  0.43347734    -0.05200
C365        C  0.99843385  0.24984427  0.41532812    -0.16000
C366        C  0.01038741  0.26600172  0.43706594     0.02900
C367        C  0.00078605  0.24461047  0.03324469     0.12900
C368        C  0.96872446  0.21539815  0.49104568     0.63500
H369        H  0.97623068  0.22116860  0.41684147     0.12900
C370        C  0.02002605  0.28794854  0.42200173     0.55600
H371        H  0.02206576  0.27421661  0.49223820     0.08700
C372        C  0.01501986  0.22881961  0.05153360    -0.05100
C373        C  0.01368384  0.22707779  0.09036140    -0.05900
C374        C  0.00094800  0.24247108  0.11163079    -0.15400
C375        C  0.98952120  0.26048664  0.09319373    -0.01000
C376        C  0.98838730  0.26028203  0.05421787    -0.08600
C377        C  0.03251638  0.21498714  0.03046890     0.65700
H378        H  0.02305428  0.21391584  0.10459255     0.11100
C379        C  0.97987064  0.28112587  0.11254735     0.64100
H380        H  0.97867903  0.27326227  0.03986751     0.08500
F381        F  0.01229306  0.30585518  0.44331021    -0.19000
F382        F  0.01352989  0.29226042  0.38581264    -0.15200
F383        F  0.04343398  0.28730525  0.42421351    -0.18700
F384        F  0.95356101  0.22916914  0.01127045    -0.22100
F385        F  0.97894650  0.20069574  0.01190171    -0.23500
F386        F  0.95565297  0.20378676  0.46536767    -0.17500
F387        F  0.98792559  0.30051272  0.09549877    -0.20000
F388        F  0.98607979  0.28233340  0.14948567    -0.21200
F389        F  0.95648483  0.28095774  0.10957484    -0.18400
F390        F  0.04533666  0.20148088  0.05402273    -0.18400
F391        F  0.04710503  0.22950265  0.01222195    -0.22300
F392        F  0.02216863  0.20109824  0.00471782    -0.23900
C393        C  0.23151169  0.07873282  0.15846262    -0.10700
C394        C  0.25207032  0.08721660  0.14494751     0.11900
C395        C  0.27093110  0.07249989  0.14109557    -0.02500
C396        C  0.26831773  0.04943047  0.15022547    -0.05200
C397        C  0.24801419  0.04117385  0.16514125    -0.16000
C398        C  0.22917690  0.05595597  0.16927754     0.02900
C399        C  0.25378522  0.11210749  0.13931939     0.12900
C400        C  0.29397411  0.08135560  0.12935059     0.63500
H401        H  0.28253762  0.03787382  0.14784267     0.12900
C402        C  0.20686431  0.04804611  0.18589764     0.55600
H403        H  0.21755088  0.09047826  0.16208520     0.08700
C404        C  0.24554667  0.12305910  0.10690918    -0.05100
C405        C  0.24599920  0.14695275  0.10536703    -0.05900
C406        C  0.25408455  0.15987620  0.13530351    -0.15400
C407        C  0.26280820  0.14887547  0.16722285    -0.01000
C408        C  0.26224613  0.12508871  0.16885645    -0.08600
C409        C  0.23596971  0.10957605  0.07454658     0.65700
H410        H  0.23948153  0.15577508  0.08118847     0.11100
C411        C  0.27308536  0.16229052  0.19903044     0.64100
H412        H  0.26816515  0.11635274  0.19352959     0.08500
F413        F  0.19009159  0.06439567  0.18263504    -0.19000
F414        F  0.20973954  0.04337930  0.22318610    -0.15200
F415        F  0.19928932  0.02875737  0.16808675    -0.18700
F416        F  0.30216517  0.09614033  0.15592994    -0.22100
F417        F  0.29222549  0.09263441  0.09585115    -0.23500
F418        F  0.30961846  0.06401484  0.12527640    -0.17500
F419        F  0.25681889  0.17611927  0.21480808    -0.20000
F420        F  0.29062574  0.17553026  0.18581178    -0.21200
F421        F  0.28171578  0.14828626  0.22654037    -0.18400
F422        F  0.22951327  0.12348859  0.04538169    -0.18400
F423        F  0.21713244  0.09754891  0.08585062    -0.22300
F424        F  0.25208330  0.09454908  0.06153771    -0.23900
C425        C  0.23391535  0.07190684  0.36738336    -0.10700
C426        C  0.25431237  0.08404564  0.36692978     0.11900
C427        C  0.27519247  0.07227198  0.36434859    -0.02500
C428        C  0.27484553  0.04850602  0.36150430    -0.05200
C429        C  0.25443109  0.03633095  0.36154588    -0.16000
C430        C  0.23355754  0.04815371  0.36404926     0.02900
C431        C  0.25326829  0.10911636  0.36989362     0.12900
C432        C  0.29767851  0.08479277  0.36412950     0.63500
H433        H  0.29057206  0.03915200  0.35868742     0.12900
C434        C  0.21100809  0.03589940  0.36239459     0.55600
H435        H  0.21820471  0.08130663  0.37001037     0.08700
C436        C  0.24834118  0.12309295  0.33896773    -0.05100
C437        C  0.24813093  0.14672372  0.34395037    -0.05900
C438        C  0.25258282  0.15677633  0.37865517    -0.15400
C439        C  0.25711648  0.14258921  0.40980209    -0.01000
C440        C  0.25712834  0.11892683  0.40473284    -0.08600
C441        C  0.24321893  0.11311651  0.30093620     0.65700
H442        H  0.24459089  0.15762259  0.32043084     0.11100
C443        C  0.26161512  0.15205104  0.44835144     0.64100
H444        H  0.26047164  0.10773075  0.42796770     0.08500
F445        F  0.19293011  0.05085084  0.35999229    -0.19000
F446        F  0.20836493  0.02318992  0.39418655    -0.15200
F447        F  0.21018273  0.02186030  0.33168135    -0.18700
F448        F  0.30063360  0.09615557  0.39731190    -0.22100
F449        F  0.29804051  0.10026083  0.33530937    -0.23500
F450        F  0.31584634  0.07015926  0.35966947    -0.17500
F451        F  0.24437133  0.16673742  0.45831910    -0.20000
F452        F  0.28210742  0.16339341  0.44875613    -0.21200
F453        F  0.26274822  0.13511080  0.47493165    -0.18400
F454        F  0.23992348  0.12979322  0.27437748    -0.18400
F455        F  0.22371964  0.10021107  0.30255234    -0.22300
F456        F  0.26101441  0.09957478  0.28949266    -0.23900
C457        C  0.26558033  0.98447444  0.05897878    -0.10700
C458        C  0.24882500  0.99637432  0.03917746     0.11900
C459        C  0.23252775  0.00921178  0.05890367    -0.02500
C460        C  0.23318118  0.00893529  0.09789983    -0.05200
C461        C  0.25032087  0.99764622  0.11784096    -0.16000
C462        C  0.26757691  0.98618250  0.09782506     0.02900
C463        C  0.25015260  0.99639783  0.49528248     0.12900
C464        C  0.21485824  0.02362901  0.03902609     0.63500
H465        H  0.22029591  0.01778657  0.11327474     0.12900
C466        C  0.28919837  0.97703199  0.11516010     0.55600
H467        H  0.27808377  0.97479717  0.04368555     0.08700
C468        C  0.26669616  0.00856473  0.47501112    -0.05100
C469        C  0.26605713  0.00766835  0.43602755    -0.05900
C470        C  0.24898778  0.99599632  0.41662541    -0.15400
C471        C  0.23181821  0.98472422  0.43710385    -0.01000
C472        C  0.23338655  0.98428873  0.47605069    -0.08600
C473        C  0.28497671  0.02245897  0.49424221     0.65700
H474        H  0.27935282  0.01567343  0.42018223     0.11100
C475        C  0.21110235  0.97368704  0.41989111     0.64100
H476        H  0.22086759  0.97493104  0.49177737     0.08500
F477        F  0.30766199  0.98500320  0.09551865    -0.19000
F478        F  0.28915282  0.95362906  0.11332278    -0.15200
F479        F  0.29206372  0.98375354  0.15156872    -0.18700
F480        F  0.20009373  0.00996932  0.01938000    -0.22100
F481        F  0.22541572  0.03837998  0.01480911    -0.23500
F482        F  0.20219850  0.03642894  0.06363660    -0.17500
F483        F  0.21186835  0.95056515  0.42607450    -0.20000
F484        F  0.20925850  0.97762337  0.38226611    -0.21200
F485        F  0.19178416  0.98232798  0.43640639    -0.18400
F486        F  0.29752869  0.03497832  0.46915306    -0.18400
F487        F  0.29917796  0.00765678  0.01490166    -0.22300
F488        F  0.27470070  0.03672488  0.02184865    -0.23900
C489        C  0.41662643  0.26865989  0.42200207    -0.10700
C490        C  0.40988987  0.25377389  0.39391366     0.11900
C491        C  0.42644018  0.24218236  0.37283366    -0.02500
C492        C  0.44948308  0.24498133  0.38230222    -0.05200
C493        C  0.45617761  0.25901068  0.41187788    -0.16000
C494        C  0.43947220  0.27151488  0.43162455     0.02900
C495        C  0.38520326  0.25037575  0.38844980     0.12900
C496        C  0.41968144  0.22666500  0.34109620     0.63500
H497        H  0.46237539  0.23545958  0.36769845     0.12900
C498        C  0.44434076  0.28769109  0.46355224     0.55600
H499        H  0.40369876  0.27773400  0.43739763     0.08700
C500        C  0.37257023  0.23616417  0.41216240    -0.05100
C501        C  0.34893430  0.23518720  0.40756973    -0.05900
C502        C  0.33734997  0.24840545  0.38088206    -0.15400
C503        C  0.35031484  0.26267092  0.35688730    -0.01000
C504        C  0.37407819  0.26323090  0.36127891    -0.08600
C505        C  0.38397692  0.22247954  0.44284463     0.65700
H506        H  0.33926936  0.22438451  0.42586368     0.11100
C507        C  0.33960998  0.27762934  0.32711741     0.64100
H508        H  0.38429674  0.27425261  0.34411605     0.08500
F509        F  0.43619764  0.27836902  0.49610359    -0.19000
F510        F  0.43325587  0.30803424  0.45717615    -0.15200
F511        F  0.46706160  0.29251504  0.46830647    -0.18700
F512        F  0.40898725  0.23915479  0.31363989    -0.22100
F513        F  0.40502740  0.21010561  0.35356721    -0.23500
F514        F  0.43829445  0.21597894  0.32563326    -0.17500
F515        F  0.32560963  0.29358956  0.34341540    -0.20000
F516        F  0.32729572  0.26447297  0.30251457    -0.21200
F517        F  0.35570547  0.28925908  0.30676083    -0.18400
F518        F  0.36871680  0.20886359  0.46153445    -0.18400
F519        F  0.39378684  0.23690447  0.46843949    -0.22300
F520        F  0.40057962  0.20864966  0.42806887    -0.23900
C521        C  0.41899770  0.23546574  0.11746778    -0.10700
C522        C  0.40925022  0.25643138  0.12621832     0.11900
C523        C  0.42334368  0.27549303  0.13212690    -0.02500
C524        C  0.44686978  0.27320876  0.12619181    -0.05200
C525        C  0.45643712  0.25252810  0.11489901    -0.16000
C526        C  0.44241502  0.23308890  0.11149457     0.02900
C527        C  0.38410348  0.25761035  0.12820092     0.12900
C528        C  0.41351799  0.29802913  0.14454547     0.63500
H529        H  0.45793876  0.28770543  0.12940034     0.12900
C530        C  0.45192246  0.20982068  0.10197244     0.55600
H531        H  0.40785127  0.22103249  0.11415527     0.08700
C532        C  0.37056033  0.25906819  0.09569699    -0.05100
C533        C  0.34685007  0.25780571  0.09911891    -0.05900
C534        C  0.33637570  0.25508625  0.13373367    -0.15400
C535        C  0.34992683  0.25380126  0.16632909    -0.01000
C536        C  0.37369877  0.25503232  0.16287648    -0.08600
C537        C  0.38113091  0.26140543  0.05747061     0.65700
H538        H  0.33621228  0.25866037  0.07456665     0.11100
C539        C  0.33946986  0.25010320  0.20430898     0.64100
H540        H  0.38446229  0.25351207  0.18718907     0.08500
F541        F  0.45924748  0.20939587  0.06565459    -0.19000
F542        F  0.43576531  0.19300288  0.10587583    -0.15200
F543        F  0.46987311  0.20458434  0.12525033    -0.18700
F544        F  0.40348130  0.29550906  0.17889996    -0.22100
F545        F  0.39738754  0.30547076  0.11936967    -0.23500
F546        F  0.43004791  0.31456013  0.14753321    -0.17500
F547        F  0.35582253  0.24692613  0.23152743    -0.20000
F548        F  0.32581275  0.23107124  0.20359769    -0.21200
F549        F  0.32661358  0.26876848  0.21407812    -0.18400
F550        F  0.36486628  0.26401346  0.02994935    -0.18400
F551        F  0.39369469  0.24225601  0.04940120    -0.22300
F552        F  0.39516438  0.28011886  0.05648863    -0.23900
C553        C  0.50968367  0.28033522  0.22385233    -0.10700
C554        C  0.49830093  0.26439843  0.24566470     0.11900
C555        C  0.48446546  0.24788608  0.22851079    -0.02500
C556        C  0.48507849  0.24587749  0.18972862    -0.05200
C557        C  0.49716639  0.26124403  0.16761468    -0.16000
C558        C  0.50814189  0.27986362  0.18493673     0.02900
C559        C  0.50064753  0.26550327  0.28647958     0.12900
C560        C  0.46852166  0.23312783  0.25103529     0.63500
H561        H  0.47610016  0.23220164  0.17638097     0.12900
C562        C  0.51709576  0.30017481  0.16399835     0.55600
H563        H  0.51917727  0.29371848  0.23741646     0.08700
C564        C  0.51545252  0.25079630  0.30576200    -0.05100
C565        C  0.51372252  0.24957532  0.34446967    -0.05900
C566        C  0.50030065  0.26487007  0.36476533    -0.15400
C567        C  0.48815320  0.28201129  0.34523098    -0.01000
C568        C  0.48752204  0.28116064  0.30623988    -0.08600
C569        C  0.53357052  0.23722439  0.28565277     0.65700
H570        H  0.52279120  0.23641207  0.35908442     0.11100
C571        C  0.47654459  0.30199731  0.36351013     0.64100
H572        H  0.47712584  0.29319103  0.29099214     0.08500
F573        F  0.54053419  0.29977329  0.16416126    -0.19000
F574        F  0.50989716  0.31987577  0.18118428    -0.15200
F575        F  0.50922420  0.30088375  0.12789938    -0.18700
F576        F  0.45391784  0.24686710  0.27085488    -0.22100
F577        F  0.48053095  0.21963715  0.27556509    -0.23500
F578        F  0.45558378  0.21913187  0.22859210    -0.17500
F579        F  0.48396957  0.32184758  0.34712545    -0.20000
F580        F  0.48129186  0.30352658  0.40092216    -0.21200
F581        F  0.45334514  0.30035848  0.35848418    -0.18400
F582        F  0.54698076  0.22494430  0.31011848    -0.18400
F583        F  0.54748785  0.25193528  0.26644315    -0.22300
F584        F  0.52388304  0.22225228  0.26082959    -0.23900
C585        C  0.62356986  0.26116168  0.17004524    -0.10700
C586        C  0.61307981  0.24793417  0.14273889     0.11900
C587        C  0.62655344  0.23465596  0.11867812    -0.02500
C588        C  0.65030883  0.23571412  0.12212244    -0.05200
C589        C  0.66117133  0.24949160  0.14879888    -0.16000
C590        C  0.64736483  0.26199051  0.17412903     0.02900
C591        C  0.58820274  0.25056540  0.13701564     0.12900
C592        C  0.61589112  0.21951650  0.08925174     0.63500
H593        H  0.66059367  0.22593224  0.10316524     0.12900
C594        C  0.65719604  0.27625391  0.20541114     0.55600
H595        H  0.61279599  0.27139390  0.18764864     0.08700
C596        C  0.57180039  0.23927470  0.15883295    -0.05100
C597        C  0.54862707  0.24197972  0.14968575    -0.05900
C598        C  0.54156182  0.25608911  0.12031466    -0.15400
C599        C  0.55811072  0.26876589  0.10056117    -0.01000
C600        C  0.58109813  0.26548783  0.10911837    -0.08600
C601        C  0.57879439  0.22440168  0.19132367     0.65700
H602        H  0.53590636  0.23245605  0.16460150     0.11100
C603        C  0.55292452  0.28619302  0.07054269     0.64100
H604        H  0.59382985  0.27470226  0.09357943     0.08500
F605        F  0.64046493  0.28516237  0.22801509    -0.19000
F606        F  0.66927934  0.29423096  0.19088304    -0.15200
F607        F  0.67120381  0.26304096  0.22750655    -0.18700
F608        F  0.60392649  0.23245748  0.06385805    -0.22100
F609        F  0.60128224  0.20430655  0.10578565    -0.23500
F610        F  0.63203050  0.20721265  0.06998550    -0.17500
F611        F  0.56355528  0.30636838  0.07946624    -0.20000
F612        F  0.53013178  0.29083509  0.06621500    -0.21200
F613        F  0.56131474  0.27854897  0.03700781    -0.18400
F614        F  0.56031721  0.21399714  0.20758642    -0.18400
F615        F  0.58945057  0.23744890  0.21801472    -0.22300
F616        F  0.59355079  0.20767036  0.17961856    -0.23900
C617        C  0.87449680  0.23501451  0.17858372    -0.10700
C618        C  0.88616921  0.24605151  0.15016678     0.11900
C619        C  0.87401341  0.25644444  0.12094073    -0.02500
C620        C  0.85014676  0.25624525  0.12214196    -0.05200
C621        C  0.83811359  0.24578271  0.15133422    -0.16000
C622        C  0.85068761  0.23475565  0.18017413     0.02900
C623        C  0.91126351  0.24602135  0.15237599     0.12900
C624        C  0.88623558  0.26748983  0.08860213     0.63500
H625        H  0.84072047  0.26428157  0.09989630     0.12900
C626        C  0.83959345  0.22292426  0.21296729     0.55600
H627        H  0.88447053  0.22677429  0.20002786     0.08700
C628        C  0.92296451  0.26067586  0.17686067    -0.05100
C629        C  0.94635558  0.25750921  0.18190844    -0.05900
C630        C  0.95825454  0.24005175  0.16393089    -0.15400
C631        C  0.94639443  0.22501043  0.14013305    -0.01000
C632        C  0.92312064  0.22877760  0.13391725    -0.08600
C633        C  0.91072735  0.27915465  0.19840376     0.65700
H634        H  0.95558707  0.26843369  0.20078787     0.11100
C635        C  0.95667179  0.20394764  0.12274018     0.64100
H636        H  0.91374095  0.21720730  0.11625651     0.08500
F637        F  0.85540915  0.21460469  0.23806828    -0.19000
F638        F  0.82691522  0.20472677  0.20056631    -0.15200
F639        F  0.82588500  0.23802043  0.23188724    -0.18700
F640        F  0.89907753  0.25146308  0.07017093    -0.22100
F641        F  0.90038008  0.28444918  0.10135910    -0.23500
F642        F  0.87122522  0.27699321  0.06332953    -0.17500
F643        F  0.94327713  0.18539676  0.13097478    -0.20000
F644        F  0.97830749  0.19917254  0.13531025    -0.21200
F645        F  0.95727265  0.20665374  0.08466509    -0.18400
F646        F  0.92565723  0.29243573  0.21860044    -0.18400
F647        F  0.89560725  0.26956168  0.22300182    -0.22300
F648        F  0.89900406  0.29316755  0.17427566    -0.23900
C649        C  0.62541916  0.25152989  0.43624190    -0.10700
C650        C  0.61315223  0.25458634  0.40324641     0.11900
C651        C  0.62475104  0.25783316  0.36937104    -0.02500
C652        C  0.64862406  0.25717806  0.36964575    -0.05200
C653        C  0.66096031  0.25405728  0.40273133    -0.16000
C654        C  0.64922140  0.25096631  0.43666272     0.02900
C655        C  0.58809707  0.25485762  0.40580364     0.12900
C656        C  0.61197891  0.26233677  0.33338494     0.63500
H657        H  0.65790522  0.25955352  0.34406125     0.12900
C658        C  0.66159360  0.24629031  0.47298680     0.55600
H659        H  0.61604466  0.24950031  0.46182665     0.08700
C660        C  0.57542717  0.23463919  0.40949510    -0.05100
C661        C  0.55201059  0.23630648  0.41585132    -0.05900
C662        C  0.54100600  0.25736766  0.41786395    -0.15400
C663        C  0.55366647  0.27756812  0.41415559    -0.01000
C664        C  0.57717413  0.27592823  0.40827880    -0.08600
C665        C  0.58660968  0.21145064  0.40723452     0.65700
H666        H  0.54199581  0.22111264  0.41959124     0.11100
C667        C  0.54258432  0.30067523  0.41761631     0.64100
H668        H  0.58737353  0.29111603  0.40624353     0.08500
F669        F  0.67649515  0.22836298  0.46851163    -0.19000
F670        F  0.64675603  0.24067117  0.50120968    -0.15200
F671        F  0.67346005  0.26532217  0.48399966    -0.18700
F672        F  0.60017069  0.28252586  0.33607488    -0.22100
F673        F  0.59682530  0.24501265  0.32637632    -0.23500
F674        F  0.62649321  0.26391915  0.30339549    -0.17500
F675        F  0.55838206  0.31799155  0.41705827    -0.20000
F676        F  0.53078168  0.30207854  0.45063580    -0.21200
F677        F  0.52783455  0.30401281  0.38830443    -0.18400
F678        F  0.57088794  0.19411091  0.40941278    -0.18400
F679        F  0.60187380  0.20875074  0.43611213    -0.22300
F680        F  0.59795477  0.20928704  0.37393961    -0.23900
C681        C  0.87465981  0.24477612  0.42073339    -0.10700
C682        C  0.88417565  0.25122387  0.38675351     0.11900
C683        C  0.86984168  0.25674047  0.35644680    -0.02500
C684        C  0.84625998  0.25566395  0.36137821    -0.05200
C685        C  0.83649953  0.24918485  0.39533607    -0.16000
C686        C  0.85097313  0.24387118  0.42585989     0.02900
C687        C  0.90921803  0.25056044  0.38267110     0.12900
C688        C  0.87938245  0.26362228  0.31891334     0.63500
H689        H  0.83515999  0.25959778  0.33823058     0.12900
C690        C  0.84174487  0.23778282  0.46387442     0.55600
H691        H  0.88605738  0.24022460  0.44319327     0.08700
C692        C  0.92345525  0.26851110  0.39441365    -0.05100
C693        C  0.94667844  0.26760629  0.38542519    -0.05900
C694        C  0.95572335  0.24943596  0.36521043    -0.15400
C695        C  0.94171183  0.23080372  0.35566763    -0.01000
C696        C  0.91865262  0.23163106  0.36510097    -0.08600
C697        C  0.91407566  0.28857526  0.41579015     0.65700
H698        H  0.95784631  0.28139950  0.39307290     0.11100
C699        C  0.95091078  0.21014019  0.33546386     0.64100
H700        H  0.90746979  0.21786612  0.35735910     0.08500
F701        F  0.85881378  0.23618947  0.49028647    -0.19000
F702        F  0.83088348  0.21706720  0.46226812    -0.15200
F703        F  0.82665557  0.25427593  0.47549972    -0.18700
F704        F  0.89128796  0.24576900  0.30356396    -0.22100
F705        F  0.89374492  0.28193493  0.32306933    -0.23500
F706        F  0.86243638  0.26974449  0.29411104    -0.17500
F707        F  0.93509846  0.19285714  0.33377251    -0.20000
F708        F  0.96988918  0.20188763  0.35366561    -0.21200
F709        F  0.95662112  0.21581897  0.29951498    -0.18400
F710        F  0.93074183  0.30433340  0.42386871    -0.18400
F711        F  0.90496192  0.28120521  0.44894188    -0.22300
F712        F  0.89734750  0.29925787  0.39520004    -0.23900
C713        C  0.76445483  0.12440387  0.16228590    -0.10700
C714        C  0.74473467  0.11389396  0.14917456     0.11900
C715        C  0.72671385  0.12723941  0.13501357    -0.02500
C716        C  0.72913370  0.15094417  0.13467146    -0.05200
C717        C  0.74874222  0.16168833  0.14845240    -0.16000
C718        C  0.76703689  0.14808966  0.16181114     0.02900
C719        C  0.74287937  0.08899985  0.15391941     0.12900
C720        C  0.70486843  0.11656100  0.12094689     0.63500
H721        H  0.71526662  0.16134223  0.12459035     0.12900
C722        C  0.78934550  0.15812351  0.17522015     0.55600
H723        H  0.77773435  0.11375270  0.17375099     0.08700
C724        C  0.75472701  0.07340007  0.13125906    -0.05100
C725        C  0.75385152  0.05020686  0.14030754    -0.05900
C726        C  0.74070810  0.04221994  0.16998923    -0.15400
C727        C  0.72775426  0.05788251  0.19117563    -0.01000
C728        C  0.72996804  0.08106342  0.18366909    -0.08600
C729        C  0.76834386  0.08121247  0.09795724     0.65700
H730        H  0.76394783  0.03820430  0.12477574     0.11100
C731        C  0.71092645  0.05150870  0.22132617     0.64100
H732        H  0.72117039  0.09321575  0.20104411     0.08500
F733        F  0.80565842  0.14157799  0.18119733    -0.19000
F734        F  0.78609426  0.16941254  0.20839701    -0.15200
F735        F  0.79773242  0.17295032  0.14889757    -0.18700
F736        F  0.69341007  0.10656922  0.15002945    -0.22100
F737        F  0.70968547  0.10028187  0.09455151    -0.23500
F738        F  0.69055764  0.13244076  0.10486377    -0.17500
F739        F  0.71889635  0.05908827  0.25525006    -0.20000
F740        F  0.70680601  0.02854303  0.22380130    -0.21200
F741        F  0.69035762  0.06197467  0.21398129    -0.18400
F742        F  0.77686149  0.06309413  0.07792850    -0.18400
F743        F  0.78641361  0.09433680  0.10950709    -0.22300
F744        F  0.75470329  0.09386578  0.07446987    -0.23900
C745        C  0.72546810  0.12704707  0.37269477    -0.10700
C746        C  0.74035556  0.11436669  0.39475937     0.11900
C747        C  0.75576151  0.12562000  0.41851974    -0.02500
C748        C  0.75590925  0.14951658  0.41892580    -0.05200
C749        C  0.74147087  0.16256883  0.39590313    -0.16000
C750        C  0.72546654  0.15092403  0.37280435     0.02900
C751        C  0.74138826  0.08950290  0.38824992     0.12900
C752        C  0.77242331  0.11237898  0.44250966     0.63500
H753        H  0.76791325  0.15814846  0.43673221     0.12900
C754        C  0.70850120  0.16307728  0.34772336     0.55600
H755        H  0.71421251  0.11785290  0.35429209     0.08700
C756        C  0.72588853  0.07402621  0.40414517    -0.05100
C757        C  0.72753012  0.05091320  0.39455911    -0.05900
C758        C  0.74336292  0.04315101  0.36840537    -0.15400
C759        C  0.75850369  0.05892154  0.35176475    -0.01000
C760        C  0.75720400  0.08179039  0.36230832    -0.08600
C761        C  0.70705134  0.08204572  0.42957933     0.65700
H762        H  0.71568353  0.03884665  0.40609977     0.11100
C763        C  0.77529259  0.05262178  0.32144798     0.64100
H764        H  0.76816991  0.09415569  0.34928222     0.08500
F765        F  0.69428203  0.14811923  0.32937861    -0.19000
F766        F  0.71987381  0.17540268  0.32097929    -0.15200
F767        F  0.69493955  0.17729253  0.36864404    -0.18700
F768        F  0.78738296  0.10060086  0.42021803    -0.22100
F769        F  0.76091893  0.09715023  0.46463607    -0.23500
F770        F  0.78490787  0.12644847  0.46550546    -0.17500
F771        F  0.76438922  0.05293547  0.28745614    -0.20000
F772        F  0.78466684  0.03145605  0.32723082    -0.21200
F773        F  0.79302527  0.06794409  0.32003962    -0.18400
F774        F  0.69453124  0.06411795  0.44338029    -0.18400
F775        F  0.69248521  0.09614133  0.41013921    -0.22300
F776        F  0.71601087  0.09380624  0.45932846    -0.23900
C777        C  0.75706385  0.01382052  0.48075934    -0.10700
C778        C  0.74005479  0.00159235  0.49890726     0.11900
C779        C  0.72440914  0.98870623  0.47784010    -0.02500
C780        C  0.72593467  0.98929174  0.43896160    -0.05200
C781        C  0.74354104  0.00071518  0.42074180    -0.16000
C782        C  0.76013527  0.01217332  0.44225034     0.02900
C783        C  0.74033773  0.00202408  0.03881847     0.12900
C784        C  0.70660991  0.97393204  0.49623605     0.63500
H785        H  0.71345299  0.98056813  0.42232654     0.12900
C786        C  0.78212265  0.02123457  0.42670332     0.55600
H787        H  0.76908149  0.02345653  0.49721914     0.08700
C788        C  0.75674288  0.98951140  0.05905528    -0.05100
C789        C  0.75566281  0.98965398  0.09788829    -0.05900
C790        C  0.73802435  0.00043812  0.11711033    -0.15400
C791        C  0.72120755  0.01245827  0.09666526    -0.01000
C792        C  0.72333248  0.01385509  0.05786962    -0.08600
C793        C  0.77540751  0.97607231  0.04000734     0.65700
H794        H  0.76901081  0.98163950  0.11378046     0.11100
C795        C  0.70046454  0.02348755  0.11370010     0.64100
H796        H  0.71101440  0.02358678  0.04206547     0.08500
F797        F  0.80003397  0.01449013  0.44911762    -0.19000
F798        F  0.78142567  0.04464676  0.42596369    -0.15200
F799        F  0.78641489  0.01306159  0.39160023    -0.18700
F800        F  0.69108011  0.98895781  0.01404580    -0.22100
F801        F  0.71623606  0.96037093  0.02026546    -0.23500
F802        F  0.69461136  0.96124104  0.47052168    -0.17500
F803        F  0.70201398  0.04676352  0.11001555    -0.20000
F804        F  0.69778293  0.01818656  0.15071176    -0.21200
F805        F  0.68123381  0.01618552  0.09513850    -0.18400
F806        F  0.78697655  0.96224944  0.06477278    -0.18400
F807        F  0.79089180  0.99071044  0.02427909    -0.22300
F808        F  0.76629012  0.96236220  0.01265752    -0.23900
C809        C  0.73252552  0.42435912  0.41262357    -0.10700
C810        C  0.75305698  0.41231063  0.41273368     0.11900
C811        C  0.77378201  0.42411795  0.41684827    -0.02500
C812        C  0.77310524  0.44762239  0.42331242    -0.05200
C813        C  0.75253358  0.45962050  0.42422297    -0.16000
C814        C  0.73187746  0.44792709  0.41863207     0.02900
C815        C  0.75220645  0.38720280  0.40983680     0.12900
C816        C  0.79644047  0.41194029  0.41421790     0.63500
H817        H  0.78868801  0.45689949  0.42798834     0.12900
C818        C  0.70927905  0.46016336  0.42018512     0.55600
H819        H  0.71693305  0.41496194  0.40880633     0.08700
C820        C  0.74858781  0.37336183  0.44134626    -0.05100
C821        C  0.74821872  0.34969262  0.43675489    -0.05900
C822        C  0.75105842  0.33946148  0.40180268    -0.15400
C823        C  0.75398063  0.35349990  0.37002307    -0.01000
C824        C  0.75452998  0.37721391  0.37478771    -0.08600
C825        C  0.74496520  0.38358625  0.47962392     0.65700
H826        H  0.74581533  0.33890769  0.46073840     0.11100
C827        C  0.75588419  0.34377308  0.33110790     0.64100
H828        H  0.75687173  0.38826995  0.35110833     0.08500
F829        F  0.69120497  0.44541826  0.41618477    -0.19000
F830        F  0.70807498  0.47585102  0.39183939    -0.15200
F831        F  0.70705543  0.47111561  0.45390619    -0.18700
F832        F  0.79875517  0.40269345  0.37919570    -0.22100
F833        F  0.79772310  0.39478903  0.44028528    -0.23500
F834        F  0.81447211  0.42648975  0.42023285    -0.17500
F835        F  0.73807919  0.32908879  0.32435689    -0.20000
F836        F  0.77623344  0.33232198  0.32744407    -0.21200
F837        F  0.75515350  0.36054426  0.30421684    -0.18400
F838        F  0.74206825  0.36709214  0.50652208    -0.18400
F839        F  0.72579378  0.39710468  0.47930820    -0.22300
F840        F  0.76345639  0.39659671  0.48965837    -0.23900
C841        C  0.72816737  0.41984644  0.12377170    -0.10700
C842        C  0.74854450  0.41117463  0.13806086     0.11900
C843        C  0.76663936  0.42612443  0.14632298    -0.02500
C844        C  0.76365438  0.44947590  0.13959640    -0.05200
C845        C  0.74345237  0.45804953  0.12425860    -0.16000
C846        C  0.72507542  0.44313357  0.11738050     0.02900
C847        C  0.75065865  0.38615706  0.14170259     0.12900
C848        C  0.78925597  0.41735521  0.16071042     0.63500
H849        H  0.77751386  0.46111796  0.14453976     0.12900
C850        C  0.70230033  0.45126458  0.10263218     0.55600
H851        H  0.71468987  0.40808598  0.11694116     0.08700
C852        C  0.74072183  0.37406154  0.17131198    -0.05100
C853        C  0.74202847  0.35023449  0.17127229    -0.05900
C854        C  0.75271438  0.33806141  0.14251901    -0.15400
C855        C  0.76295169  0.35047349  0.11292601    -0.01000
C856        C  0.76145854  0.37431369  0.11312868    -0.08600
C857        C  0.72855983  0.38629207  0.20259802     0.65700
H858        H  0.73440431  0.34090418  0.19385759     0.11100
C859        C  0.77508331  0.33906772  0.08070872     0.64100
H860        H  0.76851484  0.38409806  0.09052524     0.08500
F861        F  0.68518026  0.43637662  0.11225793    -0.19000
F862        F  0.70305019  0.45266899  0.06437373    -0.15200
F863        F  0.69672081  0.47223261  0.11714329    -0.18700
F864        F  0.79956525  0.40429629  0.13375792    -0.22100
F865        F  0.78604070  0.40429350  0.19209294    -0.23500
F866        F  0.80381973  0.43486896  0.16989563    -0.17500
F867        F  0.76052268  0.32425977  0.06285404    -0.20000
F868        F  0.79393245  0.32746841  0.09368023    -0.21200
F869        F  0.78254478  0.35456686  0.05461447    -0.18400
F870        F  0.72116739  0.37143326  0.22970302    -0.18400
F871        F  0.70983471  0.39767355  0.18877294    -0.22300
F872        F  0.74300276  0.40171438  0.21917603    -0.23900
C873        C  0.76750702  0.51087437  0.23323442    -0.10700
C874        C  0.74988860  0.50082438  0.25340074     0.11900
C875        C  0.73208171  0.48974263  0.23419950    -0.02500
C876        C  0.73221250  0.48987614  0.19518927    -0.05200
C877        C  0.75002633  0.49958486  0.17493680    -0.16000
C878        C  0.76859475  0.50923488  0.19436501     0.02900
C879        C  0.75106972  0.50126205  0.29461144     0.12900
C880        C  0.71306091  0.47776830  0.25467832     0.63500
H881        H  0.71817650  0.48257327  0.17998151     0.12900
C882        C  0.79030507  0.51684366  0.17587144     0.55600
H883        H  0.78115840  0.51914952  0.24820433     0.08700
C884        C  0.76632258  0.48728216  0.31469951    -0.05100
C885        C  0.76651242  0.48866687  0.35360093    -0.05900
C886        C  0.75081741  0.50197468  0.37316026    -0.15400
C887        C  0.73449856  0.51475866  0.35287559    -0.01000
C888        C  0.73592928  0.51525386  0.31393365    -0.08600
C889        C  0.78197162  0.47058202  0.29533940     0.65700
H890        H  0.77913998  0.47937948  0.36921155     0.11100
C891        C  0.71441072  0.52684214  0.37012000     0.64100
H892        H  0.72419519  0.52576411  0.29827649     0.08500
F893        F  0.80872635  0.50791453  0.19485386    -0.19000
F894        F  0.79165342  0.54022381  0.17685015    -0.15200
F895        F  0.79181718  0.50956101  0.13957304    -0.18700
F896        F  0.69972907  0.49346201  0.27289580    -0.22100
F897        F  0.72197837  0.46268142  0.28028398    -0.23500
F898        F  0.69925751  0.46567682  0.23067182    -0.17500
F899        F  0.69471979  0.52013821  0.35223876    -0.20000
F900        F  0.71685668  0.54997974  0.36563749    -0.21200
F901        F  0.71178896  0.52197713  0.40733684    -0.18400
F902        F  0.79348860  0.45696384  0.32047253    -0.18400
F903        F  0.79784519  0.48208781  0.27453106    -0.22300
F904        F  0.76948208  0.45659758  0.27226864    -0.23900
C905        C  0.73171210  0.62666864  0.12905708    -0.10700
C906        C  0.75070070  0.61497688  0.14280174     0.11900
C907        C  0.76968296  0.62736048  0.15591715    -0.02500
C908        C  0.76888740  0.65120430  0.15476448    -0.05200
C909        C  0.74994282  0.66287108  0.14074935    -0.16000
C910        C  0.73095129  0.65046133  0.12754824     0.02900
C911        C  0.75112764  0.58989339  0.13881272     0.12900
C912        C  0.79072862  0.61549702  0.17084278     0.63500
H913        H  0.78319952  0.66101671  0.16463304     0.12900
C914        C  0.70981593  0.66104340  0.11044795     0.55600
H915        H  0.71754774  0.61701664  0.11813067     0.08700
C916        C  0.73857365  0.57512404  0.16191913    -0.05100
C917        C  0.73834585  0.55175557  0.15357608    -0.05900
C918        C  0.75088290  0.54279505  0.12385624    -0.15400
C919        C  0.76475157  0.55758986  0.10258762    -0.01000
C920        C  0.76368206  0.58093202  0.10943824    -0.08600
C921        C  0.72521532  0.58405202  0.19474265     0.65700
H922        H  0.72763096  0.54046831  0.16936969     0.11100
C923        C  0.78136603  0.55009994  0.07282850     0.64100
H924        H  0.77311408  0.59240797  0.09177064     0.08500
F925        F  0.69133605  0.65614419  0.13254064    -0.19000
F926        F  0.70619905  0.65181996  0.07562311    -0.15200
F927        F  0.71113647  0.68427282  0.10632808    -0.18700
F928        F  0.80150894  0.60395601  0.14259341    -0.22100
F929        F  0.78478047  0.60031194  0.19833825    -0.23500
F930        F  0.80606242  0.63071242  0.18587172    -0.17500
F931        F  0.77381874  0.55771005  0.03862593    -0.20000
F932        F  0.78448579  0.52693789  0.07119493    -0.21200
F933        F  0.80234946  0.55964575  0.08003275    -0.18400
F934        F  0.71586407  0.56665000  0.21540306    -0.18400
F935        F  0.70777714  0.59785539  0.18243299    -0.22300
F936        F  0.73930763  0.59639432  0.21783842    -0.23900
C937        C  0.74819240  0.87574310  0.11246059    -0.10700
C938        C  0.74554072  0.88566569  0.14751587     0.11900
C939        C  0.74350874  0.87180096  0.17939394    -0.02500
C940        C  0.74526312  0.84820691  0.17520991    -0.05200
C941        C  0.74813020  0.83816992  0.14023713    -0.16000
C942        C  0.74947226  0.85205505  0.10813975     0.02900
C943        C  0.74521558  0.91070053  0.15042341     0.12900
C944        C  0.73914514  0.88190183  0.21754001     0.63500
H945        H  0.74396403  0.83728890  0.19928921     0.12900
C946        C  0.75291552  0.84203579  0.06974973     0.55600
H947        H  0.74935368  0.88678925  0.08852247     0.08700
C948        C  0.76546033  0.92331895  0.15422296    -0.05100
C949        C  0.76385675  0.94654962  0.16225260    -0.05900
C950        C  0.74279002  0.95747349  0.16519055    -0.15400
C951        C  0.72256587  0.94503335  0.15969360    -0.01000
C952        C  0.72416172  0.92172201  0.15197901    -0.08600
C953        C  0.78857816  0.91218577  0.15031406     0.65700
H954        H  0.77908687  0.95639447  0.16691531     0.11100
C955        C  0.69947227  0.95610148  0.16354330     0.64100
H956        H  0.70895820  0.91166947  0.14846052     0.08500
F957        F  0.75663578  0.85865195  0.04332473    -0.19000
F958        F  0.73386017  0.83000126  0.05922098    -0.15200
F959        F  0.77153403  0.82772654  0.07002200    -0.18700
F960        F  0.71845552  0.89296994  0.21748100    -0.22100
F961        F  0.75600288  0.89717821  0.22665543    -0.23500
F962        F  0.73860713  0.86544427  0.24492522    -0.17500
F963        F  0.69678627  0.97237923  0.13638364    -0.20000
F964        F  0.69759725  0.96610597  0.19810722    -0.21200
F965        F  0.68203303  0.94059428  0.15973389    -0.18400
F966        F  0.80603724  0.92757969  0.15502606    -0.18400
F967        F  0.79056621  0.90286129  0.11528993    -0.22300
F968        F  0.79118836  0.89526591  0.17654603    -0.23900
C969        C  0.76990488  0.57786067  0.39191194    -0.10700
C970        C  0.75368134  0.59166124  0.40921894     0.11900
C971        C  0.73804132  0.58187957  0.43418973    -0.02500
C972        C  0.73959716  0.55854623  0.44166600    -0.05200
C973        C  0.75603485  0.54470190  0.42483648    -0.16000
C974        C  0.77201309  0.55464594  0.40042307     0.02900
C975        C  0.75438013  0.61655990  0.40280096     0.12900
C976        C  0.71980924  0.59604400  0.45288177     0.63500
H977        H  0.72777994  0.55078145  0.46075167     0.12900
C978        C  0.79239038  0.54230044  0.38456238     0.55600
H979        H  0.78186646  0.58560667  0.37299727     0.08700
C980        C  0.76983094  0.63066253  0.42217077    -0.05100
C981        C  0.76845153  0.65425813  0.41701515    -0.05900
C982        C  0.75229064  0.66403726  0.39323804    -0.15400
C983        C  0.73726584  0.64990942  0.37295614    -0.01000
C984        C  0.73867678  0.62629743  0.37810786    -0.08600
C985        C  0.78757883  0.62084916  0.44837279     0.65700
H986        H  0.77991574  0.66538410  0.43187182     0.11100
C987        C  0.71946915  0.65856450  0.34580080     0.64100
H988        H  0.72714077  0.61530946  0.36306407     0.08500
F989        F  0.81179980  0.55468606  0.39193163    -0.19000
F990        F  0.78983220  0.54035448  0.34653480    -0.15200
F991        F  0.79558705  0.52097848  0.39951722    -0.18700
F992        F  0.70530155  0.60492404  0.42634972    -0.22100
F993        F  0.72961847  0.61360255  0.47256755    -0.23500
F994        F  0.70700602  0.58334581  0.47736439    -0.17500
F995        F  0.72304183  0.64874270  0.31145702    -0.20000
F996        F  0.71976344  0.68181406  0.34124080    -0.21200
F997        F  0.69819302  0.65241726  0.35824954    -0.18400
F998        F  0.80000975  0.63764195  0.46587126    -0.18400
F999        F  0.80250857  0.60739524  0.42871712    -0.22300
F1000       F  0.77726317  0.60792249  0.47547552    -0.23900
C1001       C  0.76346069  0.87583114  0.36444586    -0.10700
C1002       C  0.75340920  0.88726695  0.39430438     0.11900
C1003       C  0.74433614  0.87470550  0.42430074    -0.02500
C1004       C  0.74642120  0.85088950  0.42387641    -0.05200
C1005       C  0.75582101  0.83948585  0.39339788    -0.16000
C1006       C  0.76445034  0.85203795  0.36311481     0.02900
C1007       C  0.74985402  0.91207852  0.39023648     0.12900
C1008       C  0.73150820  0.88629364  0.45551346     0.63500
H1009       H  0.73965128  0.84088210  0.44646081     0.12900
C1010       C  0.77431173  0.84029031  0.32930837     0.55600
H1011       H  0.76961754  0.88576636  0.34130023     0.08700
C1012       C  0.76690004  0.92818047  0.39858005    -0.05100
C1013       C  0.76295086  0.95110404  0.38952346    -0.05900
C1014       C  0.74296718  0.95807903  0.37144366    -0.15400
C1015       C  0.72565215  0.94198393  0.36408445    -0.01000
C1016       C  0.72953805  0.91920077  0.37360830    -0.08600
C1017       C  0.78945465  0.92105893  0.41549882     0.65700
H1018       H  0.77591950  0.96366134  0.39491591     0.11100
C1019       C  0.70305651  0.94857068  0.34655626     0.64100
H1020       H  0.71695359  0.90646272  0.36698941     0.08500
F1021       F  0.78359858  0.85558816  0.30453771    -0.19000
F1022       F  0.75744458  0.82846040  0.31095283    -0.15200
F1023       F  0.79120825  0.82536853  0.34019173    -0.18700
F1024       F  0.71247049  0.89700245  0.44137153    -0.22100
F1025       F  0.74510290  0.90220409  0.47267646    -0.23500
F1026       F  0.72447677  0.87098004  0.48219167    -0.17500
F1027       F  0.70599194  0.95432670  0.30976226    -0.20000
F1028       F  0.69370186  0.96673376  0.36526895    -0.21200
F1029       F  0.68763239  0.93092516  0.34781014    -0.18400
F1030       F  0.80331625  0.93949880  0.42244199    -0.18400
F1031       F  0.80069565  0.90669743  0.39147469    -0.22300
F1032       F  0.78598761  0.90992540  0.44870846    -0.23900
C1033       C  0.62810275  0.74845577  0.36578976    -0.10700
C1034       C  0.61807304  0.75688051  0.39821163     0.11900
C1035       C  0.63189480  0.76593485  0.42683992    -0.02500
C1036       C  0.65557284  0.76555399  0.42241520    -0.05200
C1037       C  0.66560048  0.75674831  0.39029621    -0.16000
C1038       C  0.65179340  0.74842473  0.36115946     0.02900
C1039       C  0.59342204  0.75323791  0.40357418     0.12900
C1040       C  0.62165743  0.77563428  0.46207075     0.63500
H1041       H  0.66653517  0.77185147  0.44428011     0.12900
C1042       C  0.66215635  0.73879589  0.32607355     0.55600
H1043       H  0.61720637  0.74126217  0.34460742     0.08700
C1044       C  0.57663618  0.76759217  0.38808000    -0.05100
C1045       C  0.55371786  0.76331302  0.39637881    -0.05900
C1046       C  0.54729880  0.74518938  0.41935815    -0.15400
C1047       C  0.56423005  0.73032820  0.43371393    -0.01000
C1048       C  0.58696630  0.73462966  0.42513778    -0.08600
C1049       C  0.58294301  0.78736144  0.36325209     0.65700
H1050       H  0.54063888  0.77456920  0.38591852     0.11100
C1051       C  0.55980862  0.70967412  0.45795008     0.64100
H1052       H  0.60005377  0.72349710  0.43610620     0.08500
F1053       F  0.64579613  0.73055841  0.30196663    -0.19000
F1054       F  0.67671712  0.72118741  0.33501827    -0.15200
F1055       F  0.67412292  0.75555021  0.30787863    -0.18700
F1056       F  0.60959758  0.75908981  0.48041419    -0.22100
F1057       F  0.60717118  0.79330217  0.45336233    -0.23500
F1058       F  0.63810565  0.78377973  0.48611071    -0.17500
F1059       F  0.57032733  0.69095879  0.44249039    -0.20000
F1060       F  0.53716712  0.70443942  0.46191761    -0.21200
F1061       F  0.56894683  0.71338350  0.49283899    -0.18400
F1062       F  0.56411666  0.79998036  0.35294121    -0.18400
F1063       F  0.59312935  0.77934244  0.33137370    -0.22300
F1064       F  0.59785702  0.80158332  0.38151501    -0.23900
C1065       C  0.58293653  0.77648999  0.12028354    -0.10700
C1066       C  0.59151443  0.75535260  0.13124804     0.11900
C1067       C  0.57653892  0.73710433  0.13763912    -0.02500
C1068       C  0.55333500  0.74023883  0.13002713    -0.05200
C1069       C  0.54487986  0.76103287  0.11693647    -0.16000
C1070       C  0.55974495  0.77972996  0.11285205     0.02900
C1071       C  0.61645001  0.75275423  0.13403137     0.12900
C1072       C  0.58504184  0.71462511  0.15287479     0.63500
H1073       H  0.54159735  0.72633918  0.13373728     0.12900
C1074       C  0.55139348  0.80300875  0.10082303     0.55600
H1075       H  0.59479410  0.79026647  0.11627327     0.08700
C1076       C  0.62974374  0.74810558  0.10231979    -0.05100
C1077       C  0.65341499  0.74714409  0.10619853    -0.05900
C1078       C  0.66406560  0.75082461  0.14050775    -0.15400
C1079       C  0.65076420  0.75562997  0.17228691    -0.01000
C1080       C  0.62699785  0.75648518  0.16840207    -0.08600
C1081       C  0.61899286  0.74488504  0.06434246     0.65700
H1082       H  0.66391660  0.74372279  0.08223787     0.11100
C1083       C  0.66157124  0.76072876  0.20966677     0.64100
H1084       H  0.61640557  0.76037647  0.19205481     0.08500
F1085       F  0.54576891  0.80275454  0.06358918    -0.19000
F1086       F  0.56784133  0.81942718  0.10601835    -0.15200
F1087       F  0.53259688  0.80925489  0.12125486    -0.18700
F1088       F  0.59407368  0.71792238  0.18791683    -0.22100
F1089       F  0.60162920  0.70571374  0.13013050    -0.23500
F1090       F  0.56777905  0.69885297  0.15558161    -0.17500
F1091       F  0.64566409  0.76757014  0.23553490    -0.20000
F1092       F  0.67728911  0.77794430  0.20592962    -0.21200
F1093       F  0.67224606  0.74153441  0.22320294    -0.18400
F1094       F  0.63502481  0.73997560  0.03753410    -0.18400
F1095       F  0.60782604  0.76453356  0.05408239    -0.22300
F1096       F  0.60363295  0.72724763  0.06515640    -0.23900
C1097       C  0.49552460  0.73393787  0.22782580    -0.10700
C1098       C  0.50635192  0.75080184  0.24872560     0.11900
C1099       C  0.51874038  0.76791751  0.23033837    -0.02500
C1100       C  0.51677411  0.76958586  0.19150185    -0.05200
C1101       C  0.50525449  0.75313468  0.17038937    -0.16000
C1102       C  0.49615911  0.73398528  0.18884697     0.02900
C1103       C  0.50546868  0.74923304  0.28978116     0.12900
C1104       C  0.53501183  0.78331402  0.25130443     0.63500
H1105       H  0.52457092  0.78362227  0.17719451     0.12900
C1106       C  0.48854469  0.71264033  0.16921687     0.55600
H1107       H  0.48740616  0.72000700  0.24219858     0.08700
C1108       C  0.49025168  0.76247631  0.31092252    -0.05100
C1109       C  0.49135583  0.76103089  0.34986957    -0.05900
C1110       C  0.50448056  0.74434394  0.36788237    -0.15400
C1111       C  0.51688307  0.72870526  0.34585403    -0.01000
C1112       C  0.51855532  0.73256232  0.30747500    -0.08600
C1113       C  0.47168263  0.77644343  0.29241303     0.65700
H1114       H  0.48139334  0.77252949  0.36651886     0.11100
C1115       C  0.52686084  0.70678698  0.36055407     0.64100
H1116       H  0.52898039  0.72142799  0.29070714     0.08500
F1117       F  0.46526358  0.71055766  0.17188676    -0.19000
F1118       F  0.49859226  0.69402260  0.18598894    -0.15200
F1119       F  0.49476309  0.71233807  0.13236568    -0.18700
F1120       F  0.55112085  0.77021009  0.26933656    -0.22100
F1121       F  0.52366792  0.79615675  0.27732723    -0.23500
F1122       F  0.54622375  0.79796761  0.22764439    -0.17500
F1123       F  0.52066960  0.68909704  0.33745388    -0.20000
F1124       F  0.51903794  0.70156313  0.39554353    -0.21200
F1125       F  0.55025200  0.70822216  0.36114226    -0.18400
F1126       F  0.45806214  0.78718995  0.31822121    -0.18400
F1127       F  0.45810731  0.76224979  0.27142862    -0.22300
F1128       F  0.48074136  0.79278237  0.26944649    -0.23900
C1129       C  0.37873171  0.73617507  0.16796525    -0.10700
C1130       C  0.38863305  0.75087751  0.14211441     0.11900
C1131       C  0.37459592  0.76445924  0.11905111    -0.02500
C1132       C  0.35094039  0.76318251  0.12335493    -0.05200
C1133       C  0.34103369  0.74854784  0.14926854    -0.16000
C1134       C  0.35505901  0.73480752  0.17219159     0.02900
C1135       C  0.41368205  0.75068144  0.13790510     0.12900
C1136       C  0.38454088  0.77984876  0.08947016     0.63500
H1137       H  0.33987208  0.77335271  0.10593507     0.12900
C1138       C  0.34623213  0.71828028  0.20103123     0.55600
H1139       H  0.38964872  0.72550152  0.18487263     0.08700
C1140       C  0.42829963  0.76361023  0.16082186    -0.05100
C1141       C  0.45159291  0.76440734  0.15215662    -0.05900
C1142       C  0.46051882  0.75237047  0.12188718    -0.15400
C1143       C  0.44596809  0.73796329  0.10088423    -0.09800
C1144       C  0.42276471  0.73765889  0.10918053    -0.08600
C1145       C  0.41916955  0.77687568  0.19360752     0.65700
H1146       H  0.46281278  0.77527243  0.16795471     0.11100
C1147       C  0.45355086  0.72274666  0.06915177     0.64100
H1148       H  0.41140435  0.72737495  0.09249459     0.08500
F1149       F  0.35571029  0.72339230  0.23520195    -0.19000
F1150       F  0.35261815  0.69652726  0.19124953    -0.15200
F1151       F  0.32292271  0.71873038  0.20474752    -0.18700
F1152       F  0.39537622  0.76696128  0.06286168    -0.22100
F1153       F  0.39998226  0.79459401  0.10527105    -0.23500
F1154       F  0.36797707  0.79263012  0.07184250    -0.17500
F1155       F  0.44466986  0.70126680  0.07407652    -0.20000
F1156       F  0.47678117  0.72037704  0.06662478    -0.21200
F1157       F  0.44538973  0.73145565  0.03602614    -0.18400
F1158       F  0.43611441  0.78876640  0.21174652    -0.18400
F1159       F  0.40945669  0.76215800  0.21878981    -0.22300
F1160       F  0.40295638  0.79223124  0.18171042    -0.23900
C1161       C  0.26450987  0.87391756  0.13081919    -0.10700
C1162       C  0.25197541  0.88386327  0.15957503     0.11900
C1163       C  0.24015595  0.86989729  0.18499937    -0.02500
C1164       C  0.24157499  0.84622871  0.18092748    -0.05200
C1165       C  0.25429361  0.83631143  0.15244906    -0.16000
C1166       C  0.26613350  0.85020651  0.12711277     0.02900
C1167       C  0.25208633  0.90895034  0.16320210     0.12900
C1168       C  0.22626042  0.87993671  0.21641777     0.63500
H1169       H  0.23269835  0.83518472  0.19997607     0.12900
C1170       C  0.28099666  0.83992338  0.09726904     0.55600
H1171       H  0.27336043  0.88493545  0.11170939     0.08700
C1172       C  0.26982400  0.92041428  0.18184144    -0.05100
C1173       C  0.26790654  0.94393464  0.18715838    -0.05900
C1174       C  0.24932219  0.95636064  0.17339835    -0.15400
C1175       C  0.23151193  0.94482344  0.15483100    -0.01000
C1176       C  0.23361421  0.92131704  0.14908301    -0.08600
C1177       C  0.29078458  0.90788275  0.19562368     0.65700
H1178       H  0.28110031  0.95294851  0.20200920     0.11100
C1179       C  0.20946478  0.95588644  0.14241739     0.64100
H1180       H  0.22015227  0.91228682  0.13484180     0.08500
F1181       F  0.29188571  0.85637455  0.07656044    -0.19000
F1182       F  0.26793526  0.82698461  0.07344533    -0.15200
F1183       F  0.29736399  0.82630075  0.11359002    -0.18700
F1184       F  0.20887404  0.89306343  0.20206228    -0.22100
F1185       F  0.23988128  0.89325861  0.23875402    -0.23500
F1186       F  0.21670904  0.86329887  0.23846850    -0.17500
F1187       F  0.20836723  0.95577573  0.10408498    -0.20000
F1188       F  0.20700011  0.97791233  0.15466058    -0.21200
F1189       F  0.19137574  0.94361577  0.15618741    -0.18400
F1190       F  0.30551546  0.92209488  0.21443937    -0.18400
F1191       F  0.30228206  0.89877018  0.16577556    -0.22300
F1192       F  0.28469283  0.89059744  0.21946873    -0.23900
C1193       C  0.37990905  0.74945324  0.37259587    -0.10700
C1194       C  0.39043935  0.74195148  0.40523423     0.11900
C1195       C  0.37713626  0.73493648  0.43566833    -0.02500
C1196       C  0.35339701  0.73539606  0.43207098    -0.05200
C1197       C  0.34255016  0.74314320  0.39950555    -0.16000
C1198       C  0.35613271  0.75018131  0.36890896     0.02900
C1199       C  0.41548434  0.74321848  0.40773238     0.12900
C1200       C  0.38799741  0.72756092  0.47211715     0.63500
H1201       H  0.34308565  0.73025185  0.45537286     0.12900
C1202       C  0.34600388  0.75830367  0.33233220     0.55600
H1203       H  0.39064118  0.75513998  0.35012847     0.08700
C1204       C  0.42981447  0.72576684  0.39441022    -0.05100
C1205       C  0.45331758  0.72747066  0.40090382    -0.05900
C1206       C  0.46257490  0.74626811  0.41925522    -0.15400
C1207       C  0.44839529  0.76470008  0.42915882    -0.01000
C1208       C  0.42493363  0.76259600  0.42391361    -0.08600
C1209       C  0.42025626  0.70546249  0.37383126     0.65700
H1210       H  0.46457563  0.71383121  0.39279559     0.11100
C1211       C  0.45734936  0.78648724  0.44612411     0.64100
H1212       H  0.41373185  0.77608769  0.43295019     0.08500
F1213       F  0.36244820  0.76160450  0.30554078    -0.19000
F1214       F  0.33496878  0.77876136  0.33749830    -0.15200
F1215       F  0.33092069  0.74236774  0.31879650    -0.18700
F1216       F  0.39965860  0.74551557  0.48764968    -0.22100
F1217       F  0.40296046  0.70989928  0.46608754    -0.23500
F1218       F  0.37202524  0.72032370  0.49753920    -0.17500
F1219       F  0.44440359  0.80477387  0.43443063    -0.20000
F1220       F  0.47950795  0.79072197  0.43578622    -0.21200
F1221       F  0.45619995  0.78505729  0.48436168    -0.18400
F1222       F  0.43710161  0.69028574  0.36387820    -0.18400
F1223       F  0.40944343  0.71265719  0.34179694    -0.22300
F1224       F  0.40484859  0.69415876  0.39588442    -0.23900
C1225       C  0.27291848  0.86952368  0.38846678    -0.10700
C1226       C  0.25269109  0.88060482  0.39767079     0.11900
C1227       C  0.23394397  0.86788614  0.41026642    -0.02500
C1228       C  0.23576647  0.84412050  0.41138227    -0.05200
C1229       C  0.25570792  0.83275033  0.40059996    -0.16000
C1230       C  0.27499191  0.84578094  0.39019749     0.02900
C1231       C  0.25139397  0.90541963  0.39130504     0.12900
C1232       C  0.21221333  0.87940479  0.42275895     0.63500
H1233       H  0.22125828  0.83419329  0.41984018     0.12900
C1234       C  0.29782805  0.83506966  0.38141957     0.55600
H1235       H  0.28703414  0.87975062  0.37916183     0.08700
C1236       C  0.26325708  0.92149887  0.41323052    -0.05100
C1237       C  0.26382382  0.94419400  0.40129771    -0.05900
C1238       C  0.25181291  0.95150401  0.36973881    -0.15400
C1239       C  0.23866590  0.93559642  0.34934573    -0.01000
C1240       C  0.23965373  0.91270426  0.35959706    -0.08600
C1241       C  0.27571075  0.91581842  0.44900577     0.65700
H1242       H  0.27398241  0.95627791  0.41669380     0.11100
C1243       C  0.22307581  0.94148911  0.31694083     0.64100
H1244       H  0.23092489  0.90026090  0.34263777     0.08500
F1245       F  0.31482277  0.85114548  0.37875386    -0.19000
F1246       F  0.29667470  0.82375407  0.34787758    -0.15200
F1247       F  0.30395056  0.82009501  0.40930444    -0.18700
F1248       F  0.20174015  0.88993891  0.39300243    -0.22100
F1249       F  0.21716442  0.89540873  0.44960791    -0.23500
F1250       F  0.19701917  0.86409462  0.43773732    -0.17500
F1251       F  0.23211670  0.93283555  0.28456314    -0.20000
F1252       F  0.21953178  0.96445828  0.31238238    -0.21200
F1253       F  0.20205628  0.93172631  0.32269192    -0.18400
F1254       F  0.26804897  0.92993358  0.47695774    -0.18400
F1255       F  0.29867732  0.91939678  0.44414782    -0.22300
F1256       F  0.27253039  0.89371924  0.46052982    -0.23900
C1257       C  0.08070617  0.78171079  0.15926425    -0.10700
C1258       C  0.09277981  0.76120423  0.15903692     0.11900
C1259       C  0.08091350  0.74043551  0.16183128    -0.02500
C1260       C  0.05712703  0.74093562  0.16458247    -0.05200
C1261       C  0.04499175  0.76140857  0.16437618    -0.16000
C1262       C  0.05686726  0.78216705  0.16188656     0.02900
C1263       C  0.11795244  0.76182107  0.15697522     0.12900
C1264       C  0.09342017  0.71789574  0.16279055     0.63500
H1265       H  0.04775618  0.72530028  0.16788558     0.12900
C1266       C  0.04438813  0.80463798  0.16239180     0.55600
H1267       H  0.09018012  0.79737528  0.15760319     0.08700
C1268       C  0.12950789  0.76308905  0.12272855    -0.05100
C1269       C  0.15327228  0.76058762  0.12259285    -0.05900
C1270       C  0.16572565  0.75753292  0.15561920    -0.15400
C1271       C  0.15421138  0.75851444  0.19019648    -0.01000
C1272       C  0.13039054  0.76037265  0.19012949    -0.08600
C1273       C  0.11673204  0.76727093  0.08666455     0.65700
H1274       H  0.16231654  0.76072340  0.09649800     0.11100
C1275       C  0.16688305  0.75842544  0.22703914     0.64100
H1276       H  0.12115185  0.76024183  0.21605857     0.08500
F1277       F  0.03081317  0.80625465  0.13120370    -0.19000
F1278       F  0.05916214  0.82283315  0.16237631    -0.15200
F1279       F  0.03106084  0.80618735  0.19379531    -0.18700
F1280       F  0.10715861  0.71684773  0.19393248    -0.22100
F1281       F  0.10668089  0.71559528  0.13146642    -0.23500
F1282       F  0.07862321  0.69973428  0.16397163    -0.17500
F1283       F  0.15271060  0.76354579  0.25643956    -0.20000
F1284       F  0.18394078  0.77449169  0.22640540    -0.21200
F1285       F  0.17619787  0.73727727  0.23357262    -0.18400
F1286       F  0.13111521  0.76757633  0.05640264    -0.18400
F1287       F  0.10583416  0.78801484  0.08833864    -0.22300
F1288       F  0.10079123  0.75047729  0.08095696    -0.23900
C1289       C  0.87606508  0.74500251  0.17025501    -0.10700
C1290       C  0.88744082  0.75544603  0.14070156     0.11900
C1291       C  0.87496590  0.76308828  0.10941966    -0.02500
C1292       C  0.85109470  0.76146803  0.11005958    -0.05200
C1293       C  0.83971381  0.75197890  0.14047629    -0.16000
C1294       C  0.85230794  0.74299585  0.17056252     0.02900
C1295       C  0.91247196  0.75792381  0.14385396     0.12900
C1296       C  0.88686504  0.77242738  0.07540944     0.63500
H1297       H  0.84109748  0.76764240  0.08686412     0.12900
C1298       C  0.84060104  0.73086404  0.20228861     0.55600
H1299       H  0.88602892  0.73863510  0.19335750     0.08700
C1300       C  0.92235405  0.77545919  0.16521136    -0.05100
C1301       C  0.94589551  0.77503895  0.17146815    -0.05900
C1302       C  0.95984444  0.75777556  0.15727638    -0.15400
C1303       C  0.94984868  0.74006018  0.13620963    -0.01000
C1304       C  0.92633447  0.74082882  0.12912685    -0.08600
C1305       C  0.90805137  0.79428074  0.18203892     0.65700
H1306       H  0.95363898  0.78802140  0.18852693     0.11100
C1307       C  0.96245326  0.71926545  0.12251615     0.64100
H1308       H  0.91845601  0.72718344  0.11362690     0.08500
F1309       F  0.82624359  0.74566196  0.22045760    -0.19000
F1310       F  0.85598407  0.72235510  0.22790587    -0.15200
F1311       F  0.82808581  0.71293190  0.18844585    -0.18700
F1312       F  0.90037156  0.75574193  0.06004302    -0.22100
F1313       F  0.90031161  0.79066535  0.08501510    -0.23500
F1314       F  0.87155876  0.77959765  0.04860306    -0.17500
F1315       F  0.95148932  0.69998313  0.13484753    -0.20000
F1316       F  0.98463303  0.71806406  0.13471416    -0.21200
F1317       F  0.96231956  0.71926871  0.08419315    -0.18400
F1318       F  0.92121751  0.80998273  0.20078658    -0.18400
F1319       F  0.89275097  0.78530076  0.20696170    -0.22300
F1320       F  0.89628753  0.80559973  0.15442058    -0.23900
C1321       C  0.12826219  0.76236588  0.40372870    -0.10700
C1322       C  0.11818574  0.74549846  0.38198026     0.11900
C1323       C  0.13189618  0.72891685  0.36483085    -0.02500
C1324       C  0.15542056  0.72928844  0.37134982    -0.05200
C1325       C  0.16589823  0.74621592  0.39309770    -0.16000
C1326       C  0.15192353  0.76329775  0.40947377     0.02900
C1327       C  0.09329122  0.74654044  0.37571679     0.12900
C1328       C  0.12180071  0.71140458  0.33862243     0.63500
H1329       H  0.16588416  0.71642775  0.35854806     0.12900
C1330       C  0.16149483  0.78279447  0.43224180     0.55600
H1331       H  0.11725950  0.77507492  0.41579248     0.08700
C1332       C  0.07760906  0.73610847  0.39990193    -0.05100
C1333       C  0.05434199  0.73676596  0.39066727    -0.05900
C1334       C  0.04636255  0.74882057  0.35954453    -0.15400
C1335       C  0.06214643  0.76091119  0.33719226    -0.01000
C1336       C  0.08537755  0.75887115  0.34514179    -0.08600
C1337       C  0.08546893  0.72483902  0.43560401     0.65700
H1338       H  0.04222983  0.72774636  0.40761983     0.11100
C1339       C  0.05584288  0.77674530  0.30535659     0.64100
H1340       H  0.09758194  0.76742170  0.32759250     0.08500
F1341       F  0.14477053  0.79780396  0.44338216    -0.19000
F1342       F  0.17693447  0.79488537  0.41130391    -0.15200
F1343       F  0.17191608  0.77447825  0.46392061    -0.18700
F1344       F  0.11259429  0.72219899  0.30798530    -0.22100
F1345       F  0.10497039  0.69927128  0.35624487    -0.23500
F1346       F  0.13794671  0.69613147  0.32626149    -0.17500
F1347       F  0.06640340  0.79741790  0.31070597    -0.20000
F1348       F  0.03288574  0.78101388  0.30231225    -0.21200
F1349       F  0.06338278  0.76756640  0.27230896    -0.18400
F1350       F  0.06766406  0.71487134  0.45437080    -0.18400
F1351       F  0.09516460  0.74091531  0.45859030    -0.22300
F1352       F  0.10134570  0.70821238  0.42819446    -0.23900
C1353       C  0.92622313  0.76943212  0.37457462    -0.10700
C1354       C  0.91373442  0.74927608  0.37312318     0.11900
C1355       C  0.92477955  0.72864972  0.36443091    -0.02500
C1356       C  0.94836283  0.72884437  0.35878000    -0.05200
C1357       C  0.96097886  0.74899529  0.36035059    -0.16000
C1358       C  0.94971745  0.76975949  0.36772467     0.02900
C1359       C  0.88876497  0.75063560  0.37770153     0.12900
C1360       C  0.91156748  0.70674986  0.35960766     0.63500
H1361       H  0.95714850  0.71326971  0.35192031     0.12900
C1362       C  0.96205748  0.79227567  0.36684597     0.55600
H1363       H  0.91722197  0.78504508  0.38037946     0.08700
C1364       C  0.87826650  0.74986256  0.41291928    -0.05100
C1365       C  0.85438802  0.75027267  0.41464559    -0.05900
C1366       C  0.84097808  0.75175477  0.38238565    -0.15400
C1367       C  0.85166657  0.75396338  0.34731722    -0.01000
C1368       C  0.87547279  0.75323986  0.34568020    -0.08600
C1369       C  0.89227458  0.74896125  0.44836622     0.65700
H1370       H  0.84596845  0.74921866  0.44124599     0.11100
C1371       C  0.83816444  0.75770543  0.31180589     0.64100
H1372       H  0.88400690  0.75443381  0.31917984     0.08500
F1373       F  0.97629453  0.79387200  0.39712998    -0.19000
F1374       F  0.94714977  0.81041650  0.36812614    -0.15200
F1375       F  0.97455918  0.79415535  0.33459640    -0.18700
F1376       F  0.89668126  0.70885947  0.33005368    -0.22100
F1377       F  0.89940379  0.70198609  0.39134713    -0.23500
F1378       F  0.92571962  0.68851036  0.35258713    -0.17500
F1379       F  0.85204468  0.76358384  0.28244172    -0.20000
F1380       F  0.82268476  0.77509689  0.31671982    -0.21200
F1381       F  0.82679002  0.73807852  0.30230474    -0.18400
F1382       F  0.87872653  0.74763924  0.47955623    -0.18400
F1383       F  0.90534782  0.76830637  0.45117438    -0.22300
F1384       F  0.90639448  0.73024276  0.44814960    -0.23900
C1385       C  0.01664961  0.77128833  0.46874781    -0.10700
C1386       C  0.00314427  0.75635963  0.48926973     0.11900
C1387       C  0.98856642  0.74118490  0.47055728    -0.02500
C1388       C  0.99002723  0.73961036  0.43179528    -0.05200
C1389       C  0.00344466  0.75451380  0.41082247    -0.16000
C1390       C  0.01614990  0.77148600  0.42968944     0.02900
C1391       C  0.00514530  0.76129442  0.03080084     0.12900
C1392       C  0.97106222  0.72727388  0.49133145     0.63500
H1393       H  0.98050876  0.72665670  0.41744135     0.12900
C1394       C  0.02824002  0.79088782  0.41059833     0.55600
H1395       H  0.02703839  0.78350464  0.48347034     0.08700
C1396       C  0.01948013  0.74675349  0.05145856    -0.05100
C1397       C  0.01783797  0.74692384  0.09036235    -0.05900
C1398       C  0.00416505  0.76270777  0.10914818    -0.15400
C1399       C  0.99215935  0.77926657  0.08814558    -0.01000
C1400       C  0.99195175  0.77747972  0.04924684    -0.08600
C1401       C  0.03718130  0.73206370  0.03251493     0.65700
H1402       H  0.02725930  0.73464520  0.10649415     0.11100
C1403       C  0.98051535  0.79981783  0.10467302     0.64100
H1404       H  0.98193278  0.78932699  0.03295995     0.08500
F1405       F  0.05142568  0.78826022  0.41469335    -0.19000
F1406       F  0.02189957  0.81114370  0.42692356    -0.15200
F1407       F  0.02294268  0.79247540  0.37336706    -0.18700
F1408       F  0.95825675  0.74451607  0.01301997    -0.22100
F1409       F  0.98340470  0.71582410  0.01660300    -0.23500
F1410       F  0.95784894  0.71444411  0.46746707    -0.17500
F1411       F  0.98835812  0.81915508  0.08720990    -0.20000
F1412       F  0.98472584  0.80232024  0.14216125    -0.21200
F1413       F  0.95738261  0.79826697  0.09880487    -0.18400
F1414       F  0.04961355  0.71943747  0.05785174    -0.18400
F1415       F  0.05204264  0.74583695  0.01336420    -0.22300
F1416       F  0.02711597  0.71726134  0.00780214    -0.23900
C1417       C  0.23329628  0.41514047  0.42187461    -0.10700
C1418       C  0.25243510  0.40441753  0.40707921     0.11900
C1419       C  0.27201903  0.41726740  0.39870870    -0.02500
C1420       C  0.27207072  0.44055500  0.40712219    -0.05200
C1421       C  0.25339533  0.45097571  0.42401709    -0.16000
C1422       C  0.23348960  0.43826193  0.43110723     0.02900
C1423       C  0.25160968  0.37949880  0.40199385     0.12900
C1424       C  0.29283764  0.40630910  0.38166846     0.63500
H1425       H  0.28690975  0.45075067  0.40142756     0.12900
C1426       C  0.21256145  0.44890292  0.44847989     0.55600
H1427       H  0.21841996  0.40495673  0.42736300     0.08700
C1428       C  0.25491062  0.36445924  0.43219671    -0.05100
C1429       C  0.25383833  0.34103266  0.42556277    -0.05900
C1430       C  0.24949293  0.33234796  0.39000903    -0.15400
C1431       C  0.24563105  0.34739531  0.35995329    -0.01000
C1432       C  0.24668911  0.37088259  0.36659747    -0.08600
C1433       C  0.25920045  0.37311626  0.47133640     0.65700
H1434       H  0.25638948  0.32920949  0.44822705     0.11100
C1435       C  0.23970730  0.33872870  0.32145085     0.64100
H1436       H  0.24371316  0.38278363  0.34418778     0.08500
F1437       F  0.21701954  0.45449071  0.48499729    -0.19000
F1438       F  0.19426698  0.43423229  0.44804668    -0.15200
F1439       F  0.20633218  0.46823805  0.42925760    -0.18700
F1440       F  0.28733274  0.39714634  0.34751887    -0.22100
F1441       F  0.30086775  0.38929409  0.40465336    -0.23500
F1442       F  0.31014484  0.42178670  0.37643300    -0.17500
F1443       F  0.22150389  0.32403200  0.32351627    -0.20000
F1444       F  0.25811885  0.32748541  0.30651005    -0.21200
F1445       F  0.23381957  0.35619866  0.29758246    -0.18400
F1446       F  0.26394450  0.35563297  0.49582433    -0.18400
F1447       F  0.24020420  0.38441993  0.48403038    -0.22300
F1448       F  0.27744856  0.38777722  0.47166213    -0.23900
C1449       C  0.23408108  0.57033136  0.40582249    -0.10700
C1450       C  0.25426523  0.58289671  0.40480317     0.11900
C1451       C  0.27532512  0.57161798  0.40953448    -0.02500
C1452       C  0.27532530  0.54826546  0.41713407    -0.05200
C1453       C  0.25528312  0.53557869  0.41732925    -0.16000
C1454       C  0.23424161  0.54669876  0.41168823     0.02900
C1455       C  0.25287514  0.60808232  0.40311310     0.12900
C1456       C  0.29774689  0.58418659  0.40703542     0.63500
H1457       H  0.29106907  0.53988862  0.42428919     0.12900
C1458       C  0.21204856  0.53381304  0.41397098     0.55600
H1459       H  0.21813062  0.57934204  0.40337442     0.08700
C1460       C  0.24801900  0.62010958  0.37004096    -0.05100
C1461       C  0.24823450  0.64401443  0.37089706    -0.05900
C1462       C  0.25361820  0.65616745  0.40343418    -0.15400
C1463       C  0.25835599  0.64386437  0.43666932    -0.01000
C1464       C  0.25716148  0.62006310  0.43590919    -0.08600
C1465       C  0.24286530  0.60774125  0.33403054     0.65700
H1466       H  0.24458497  0.65342359  0.34575839     0.11100
C1467       C  0.26475349  0.65540831  0.47298487     0.64100
H1468       H  0.26032691  0.61036358  0.46094294     0.08500
F1469       F  0.19353549  0.54771545  0.40726074    -0.19000
F1470       F  0.20967127  0.52451684  0.44898342    -0.15200
F1471       F  0.21183193  0.51665430  0.38791719    -0.18700
F1472       F  0.30017073  0.59877019  0.43674876    -0.22100
F1473       F  0.29852172  0.59647654  0.37437802    -0.23500
F1474       F  0.31604567  0.56943820  0.40731598    -0.17500
F1475       F  0.24841459  0.67122581  0.48240613    -0.20000
F1476       F  0.28558281  0.66590029  0.46941613    -0.21200
F1477       F  0.26659777  0.64013322  0.50202036    -0.18400
F1478       F  0.24011974  0.62258871  0.30458076    -0.18400
F1479       F  0.22305988  0.59547412  0.33760875    -0.22300
F1480       F  0.26043645  0.59310179  0.32554964    -0.23900
C1481       C  0.22021814  0.57931479  0.14135937    -0.10700
C1482       C  0.24215415  0.58823240  0.13888930     0.11900
C1483       C  0.26077115  0.57344362  0.13321020    -0.02500
C1484       C  0.25650264  0.55018395  0.12788262    -0.05200
C1485       C  0.23435080  0.54155862  0.12765137    -0.16000
C1486       C  0.21583929  0.55624128  0.13519946     0.02900
C1487       C  0.24480428  0.61326765  0.14055069     0.12900
C1488       C  0.28490832  0.58230137  0.13195449     0.63500
H1489       H  0.27038209  0.53864465  0.12224535     0.12900
C1490       C  0.19119283  0.54886091  0.13678397     0.55600
H1491       H  0.20617259  0.59074608  0.14668872     0.08700
C1492       C  0.24014847  0.62718621  0.10931267    -0.05100
C1493       C  0.24265916  0.65080289  0.11280260    -0.05900
C1494       C  0.24897935  0.66079143  0.14657637    -0.15400
C1495       C  0.25373442  0.64690463  0.17775107    -0.01000
C1496       C  0.25143341  0.62323865  0.17421601    -0.08600
C1497       C  0.23221995  0.61715464  0.07264193     0.65700
H1498       H  0.23916800  0.66177890  0.08933767     0.11100
C1499       C  0.26177538  0.65705416  0.21418069     0.64100
H1500       H  0.25465782  0.61228360  0.19779662     0.08500
F1501       F  0.17888206  0.56061374  0.11024754    -0.19000
F1502       F  0.18255768  0.55400005  0.17142291    -0.15200
F1503       F  0.18811535  0.52596178  0.13074499    -0.18700
F1504       F  0.29055610  0.59176703  0.16581941    -0.22100
F1505       F  0.28686031  0.59860195  0.10457698    -0.23500
F1506       F  0.30037086  0.56522696  0.12448878    -0.17500
F1507       F  0.24481325  0.67032661  0.22926176    -0.20000
F1508       F  0.28075329  0.67027299  0.20809678    -0.21200
F1509       F  0.26750010  0.64049367  0.23981727    -0.18400
F1510       F  0.22983423  0.63355776  0.04542573    -0.18400
F1511       F  0.21138290  0.60687467  0.07718905    -0.22300
F1512       F  0.24769402  0.60125502  0.06027603    -0.23900
C1513       C  0.22286513  0.42063520  0.14601530    -0.10700
C1514       C  0.24057787  0.40948316  0.12755457     0.11900
C1515       C  0.25551489  0.42215908  0.10496377    -0.02500
C1516       C  0.25179754  0.44557894  0.10105280    -0.05200
C1517       C  0.23432518  0.45684694  0.11997361    -0.16000
C1518       C  0.21936412  0.44415952  0.14262993     0.02900
C1519       C  0.24166749  0.38428349  0.12933811     0.12900
C1520       C  0.27536648  0.41107269  0.08518134     0.63500
H1521       H  0.26258019  0.45539779  0.08287821     0.12900
C1522       C  0.19895444  0.45399042  0.16252785     0.55600
H1523       H  0.21112338  0.41067800  0.16235985     0.08700
C1524       C  0.25022845  0.37242435  0.16051117    -0.05100
C1525       C  0.25092634  0.34854324  0.15939820    -0.05900
C1526       C  0.24321400  0.33612532  0.12835600    -0.15400
C1527       C  0.23428497  0.34829960  0.09722515    -0.01000
C1528       C  0.23346865  0.37213410  0.09877223    -0.08600
C1529       C  0.25864578  0.38495841  0.19471276     0.65700
H1530       H  0.25744330  0.33937122  0.18319185     0.11100
C1531       C  0.22588502  0.33668355  0.06204317     0.64100
H1532       H  0.22648319  0.38172159  0.07574591     0.08500
F1533       F  0.17972541  0.44208893  0.15230208    -0.19000
F1534       F  0.19509900  0.47656790  0.15467779    -0.15200
F1535       F  0.20212839  0.45169761  0.20037310    -0.18700
F1536       F  0.26757544  0.39603216  0.05871883    -0.22100
F1537       F  0.28874073  0.39954821  0.11055549    -0.23500
F1538       F  0.28887803  0.42687716  0.06748899    -0.17500
F1539       F  0.20683331  0.32391965  0.06977492    -0.20000
F1540       F  0.24276662  0.32293201  0.04777780    -0.21200
F1541       F  0.21994093  0.35209465  0.03466708    -0.18400
F1542       F  0.26712144  0.37026976  0.22137827    -0.18400
F1543       F  0.24105319  0.39705127  0.21046471    -0.22300
F1544       F  0.27574473  0.39978484  0.18500642    -0.23900
C1545       C  0.26358407  0.48383134  0.22614834    -0.10700
C1546       C  0.24868651  0.49425447  0.25114326     0.11900
C1547       C  0.23130886  0.50859760  0.23748000    -0.02500
C1548       C  0.22722775  0.50911229  0.19906272    -0.05200
C1549       C  0.24159801  0.49808506  0.17382497    -0.16000
C1550       C  0.26116984  0.48677198  0.18757361     0.02900
C1551       C  0.25232264  0.49107967  0.29154174     0.12900
C1552       C  0.21827781  0.52445018  0.26304250     0.63500
H1553       H  0.21289673  0.51847028  0.18833963     0.12900
C1554       C  0.28070203  0.47910201  0.16344722     0.55600
H1555       H  0.27782096  0.47416673  0.23695202     0.08700
C1556       C  0.23805073  0.47706343  0.31297046    -0.05100
C1557       C  0.23943472  0.47855310  0.35184905    -0.05900
C1558       C  0.25669609  0.49098347  0.36951885    -0.15400
C1559       C  0.27402397  0.50059046  0.34727271    -0.01000
C1560       C  0.27057631  0.50205689  0.30873346    -0.08600
C1561       C  0.22258940  0.45970204  0.29480872     0.65700
H1562       H  0.22715923  0.46978394  0.36865907     0.11100
C1563       C  0.29718174  0.50728130  0.36177253     0.64100
H1564       H  0.28275536  0.51101692  0.29171658     0.08500
F1565       F  0.28225468  0.45572865  0.16430656    -0.19000
F1566       F  0.30069919  0.48804200  0.17726913    -0.15200
F1567       F  0.27859941  0.48631199  0.12711268    -0.18700
F1568       F  0.23338863  0.53886072  0.28052011    -0.22100
F1569       F  0.20659025  0.51248931  0.28973436    -0.23500
F1570       F  0.20276182  0.53757538  0.24364536    -0.17500
F1571       F  0.31356985  0.49534667  0.34250985    -0.20000
F1572       F  0.30006387  0.50235317  0.39898074    -0.21200
F1573       F  0.30064701  0.53015189  0.35581558    -0.18400
F1574       F  0.21159385  0.44651636  0.32091340    -0.18400
F1575       F  0.23545506  0.44547650  0.27276071    -0.22300
F1576       F  0.20636065  0.47013255  0.27296544    -0.23900
N1577       N  0.23579347  0.49719939  0.63615039    -0.02300
C1578       C  0.23135551  0.47945078  0.61317617     0.00300
C1579       C  0.22472911  0.48721797  0.57855804    -0.22600
C1580       C  0.22448160  0.51049729  0.58043773    -0.22800
C1581       C  0.23103576  0.51611450  0.61610230     0.00200
H1582       H  0.22065405  0.47702404  0.55449819     0.14000
H1583       H  0.22025333  0.52208439  0.55815026     0.14000
N1584       N  0.25877705  0.49300814  0.91090756    -0.02300
C1585       C  0.25771482  0.47543752  0.93522290     0.00300
C1586       C  0.25850786  0.48320314  0.97136431    -0.22600
C1587       C  0.25918752  0.50645352  0.96941778    -0.22800
C1588       C  0.25892272  0.51207703  0.93217209     0.00200
H1589       H  0.25833938  0.47310199  0.99643884     0.14000
H1590       H  0.25915348  0.51806273  0.99266043     0.14000
N1591       N  0.00264974  0.75594026  0.87149053    -0.02300
C1592       C  0.02067547  0.75127013  0.84916623     0.00300
C1593       C  0.01326110  0.74348538  0.81507213    -0.22600
C1594       C  0.99001204  0.74399805  0.81575975    -0.22800
C1595       C  0.98388776  0.75177390  0.85043334     0.00200
H1596       H  0.02374632  0.73747661  0.79260018     0.14000
H1597       H  0.97869623  0.73834170  0.79399329     0.14000
N1598       N  0.00248786  0.75685904  0.64881081    -0.02300
C1599       C  0.98389309  0.75344758  0.67044764     0.00300
C1600       C  0.99020915  0.75148555  0.70726174    -0.22600
C1601       C  0.01342045  0.75304036  0.70845592    -0.22800
C1602       C  0.02053816  0.75621148  0.67244371     0.00200
H1603       H  0.97903039  0.74911809  0.73062482     0.14000
H1604       H  0.02409412  0.75193973  0.73280441     0.14000
Zn1605     Zn  0.27252371  0.72644293  0.93220750     1.49700
Zn1606     Zn  0.23379579  0.76409100  0.93030855     1.49400
Zn1607     Zn  0.27230382  0.76347025  0.86722080     1.49100
Zn1608     Zn  0.23441723  0.72501127  0.86719408     1.49500
O1609       O  0.25317875  0.74467033  0.89924216    -1.82900
O1610       O  0.26678724  0.73337580  0.98703886    -0.73600
O1611       O  0.24032727  0.79719862  0.92047706    -0.73400
O1612       O  0.30545943  0.75764334  0.87706960    -0.72900
O1613       O  0.23897092  0.75882540  0.98570297    -0.73600
O1614       O  0.30586573  0.73181482  0.92155345    -0.73200
O1615       O  0.26641270  0.79650685  0.87654220    -0.73800
O1616       O  0.24085973  0.73031339  0.81208019    -0.73200
O1617       O  0.20068818  0.75878487  0.91794880    -0.73900
O1618       O  0.26657838  0.75775515  0.81257654    -0.73300
O1619       O  0.20104853  0.73226151  0.87465115    -0.73800
O1620       O  0.24002073  0.69165203  0.87947168    -0.73700
O1621       O  0.26624391  0.69329816  0.92366063    -0.73500
C1622       C  0.25290327  0.74642794  0.00378526     0.78300
C1623       C  0.25363277  0.80752279  0.89840856     0.78800
C1624       C  0.31638131  0.74464981  0.89892629     0.77800
C1625       C  0.25375094  0.74412565  0.79496052     0.78100
C1626       C  0.19012677  0.74609617  0.89517982     0.79300
C1627       C  0.25317186  0.68181676  0.90274179     0.78300
Zn1628     Zn  0.27259959  0.76505051  0.68250016     1.49700
Zn1629     Zn  0.27216053  0.72691298  0.61806953     1.49400
Zn1630     Zn  0.23333114  0.72820844  0.68091305     1.49100
Zn1631     Zn  0.23525428  0.76660391  0.61668500     1.49500
O1632       O  0.25334161  0.74668083  0.64948682    -1.82900
O1633       O  0.30577645  0.75923330  0.67187661    -0.73600
O1634       O  0.26502031  0.69387466  0.62770880    -0.73400
O1635       O  0.23992270  0.73211713  0.73599937    -0.72900
O1636       O  0.30549089  0.73241863  0.62830820    -0.73600
O1637       O  0.26703841  0.75814698  0.73708693    -0.73200
O1638       O  0.23726175  0.69483085  0.66940729    -0.73800
O1639       O  0.20169874  0.76349142  0.62815061    -0.73200
O1640       O  0.26668632  0.73258009  0.56295228    -0.73900
O1641       O  0.20058652  0.73747943  0.67275103    -0.73300
O1642       O  0.24034100  0.75955696  0.56180926    -0.73800
O1643       O  0.24321378  0.79959781  0.62571620    -0.73700
O1644       O  0.26662733  0.79848309  0.67433797    -0.73500
C1645       C  0.31609413  0.74583710  0.64993543     0.78300
C1646       C  0.25071085  0.68385969  0.64840494     0.78800
C1647       C  0.25362743  0.74472930  0.75390665     0.77800
C1648       C  0.19063386  0.75168785  0.65154793     0.78100
C1649       C  0.25350656  0.74582040  0.54499267     0.79300
C1650       C  0.25520243  0.80953956  0.65027360     0.78300
N1651       N  0.50317278  0.75464849  0.63049227    -0.02300
C1652       C  0.48395747  0.75544011  0.60940391     0.00300
C1653       C  0.48906145  0.76218517  0.57364825    -0.22600
C1654       C  0.51215116  0.76474637  0.57208447    -0.22800
C1655       C  0.52035305  0.76042890  0.60734193     0.00200
H1656       H  0.47721719  0.76451191  0.55096441     0.14000
H1657       H  0.52184785  0.76868255  0.54757266     0.14000
N1658       N  0.50414016  0.74519539  0.90850898    -0.02300
C1659       C  0.52258600  0.74522841  0.93142159     0.00300
C1660       C  0.51593657  0.74679574  0.96807178    -0.22600
C1661       C  0.49270089  0.74731379  0.96802069    -0.22800
C1662       C  0.48589535  0.74695213  0.93131653     0.00200
H1663       H  0.52688359  0.74744875  0.99221388     0.14000
H1664       H  0.48192435  0.74781477  0.99217680     0.14000
Zn1665     Zn  0.77067075  0.73209491  0.85791172     1.49700
Zn1666     Zn  0.77224627  0.76981964  0.92323570     1.49400
Zn1667     Zn  0.73438450  0.77170205  0.85784038     1.49100
Zn1668     Zn  0.73266746  0.73308556  0.92166280     1.49500
O1669       O  0.75247816  0.75171259  0.89027477    -1.82900
O1670       O  0.80377342  0.73857754  0.86567287    -0.73600
O1671       O  0.76644198  0.80346471  0.91541804    -0.73400
O1672       O  0.73999915  0.76604647  0.80274526    -0.72900
O1673       O  0.80532862  0.76391957  0.91126347    -0.73600
O1674       O  0.76410274  0.73706468  0.80305007    -0.73200
O1675       O  0.74165558  0.80440449  0.86863124    -0.73800
O1676       O  0.69991829  0.74115549  0.91205467    -0.73200
O1677       O  0.76699415  0.76280159  0.97804583    -0.73900
O1678       O  0.70094146  0.76732985  0.86747922    -0.73300
O1679       O  0.73864908  0.73803028  0.97685293    -0.73800
O1680       O  0.73744596  0.69963677  0.91106682    -0.73700
O1681       O  0.76520844  0.69908115  0.86929912    -0.73500
C1682       C  0.81505486  0.75144654  0.88718814     0.78300
C1683       C  0.75429880  0.81442264  0.89215761     0.78800
C1684       C  0.75197163  0.75145013  0.78560521     0.77800
C1685       C  0.68998309  0.75481401  0.88990209     0.78100
C1686       C  0.75283885  0.75011921  0.99473654     0.79300
C1687       C  0.75127319  0.68889655  0.89038602     0.78300
Zn1688     Zn  0.73281136  0.76893351  0.60693048     1.49700
Zn1689     Zn  0.73252527  0.73184911  0.67296794     1.49400
Zn1690     Zn  0.77094933  0.73078906  0.60877592     1.49100
Zn1691     Zn  0.77057768  0.76974087  0.67195166     1.49500
O1692       O  0.75177229  0.75029207  0.64012277    -1.82900
O1693       O  0.69970252  0.76287863  0.61653199    -0.73600
O1694       O  0.73713332  0.69855155  0.66260839    -0.73400
O1695       O  0.76613797  0.73672123  0.55336150    -0.72900
O1696       O  0.69951026  0.73884774  0.66411542    -0.73600
O1697       O  0.73909571  0.76301126  0.55232514    -0.73200
O1698       O  0.76396204  0.69772463  0.61917681    -0.73800
O1699       O  0.80383619  0.76366478  0.66234680    -0.73200
O1700       O  0.73884386  0.73736933  0.72778518    -0.73900
O1701       O  0.80417153  0.73640422  0.61958629    -0.73300
O1702       O  0.76474595  0.76463923  0.72710111    -0.73800
O1703       O  0.76385684  0.80267396  0.66157478    -0.73700
O1704       O  0.73803859  0.80223232  0.61644107    -0.73500
C1705       C  0.68910086  0.75114778  0.64054084     0.78300
C1706       C  0.75008826  0.68768397  0.64067864     0.78800
C1707       C  0.75288971  0.74996011  0.53555521     0.77800
C1708       C  0.81449036  0.74994860  0.64134445     0.78100
C1709       C  0.75182581  0.75116191  0.74473237     0.79300
C1710       C  0.75067410  0.81298133  0.63906129     0.78300
N1711       N  0.74912263  0.50028157  0.63459901    -0.02300
C1712       C  0.74785485  0.51862098  0.61169576     0.00300
C1713       C  0.74169430  0.51185745  0.57627340    -0.22600
C1714       C  0.73971924  0.48866672  0.57704960    -0.22800
C1715       C  0.74403168  0.48204612  0.61318276     0.00200
H1716       H  0.73880637  0.52269563  0.55248775     0.14000
H1717       H  0.73529223  0.47782067  0.55394658     0.14000
N1718       N  0.75220981  0.50230737  0.91303020    -0.02300
C1719       C  0.75591053  0.52050099  0.93552686     0.00300
C1720       C  0.75852243  0.51350505  0.97191690    -0.22600
C1721       C  0.75709591  0.49028101  0.97190994    -0.22800
C1722       C  0.75325151  0.48382998  0.93562531     0.00200
H1723       H  0.76156516  0.52416137  0.99578331     0.14000
H1724       H  0.75909853  0.47921404  0.99565305     0.14000
N1725       N  0.74374573  0.00060243  0.87945847    -0.02300
C1726       C  0.74283402  0.01883452  0.85630085     0.00300
C1727       C  0.73968605  0.01165903  0.82015440    -0.22600
C1728       C  0.73931268  0.98838231  0.82086634    -0.22800
C1729       C  0.74126903  0.98199549  0.85762317     0.00200
H1730       H  0.73759376  0.02220748  0.79590713     0.14000
H1731       H  0.73812216  0.97739771  0.79700221     0.14000
N1732       N  0.74005619  0.99960073  0.65848108    -0.02300
C1733       C  0.74354546  0.01784037  0.68083814     0.00300
C1734       C  0.75079736  0.01087586  0.71556417    -0.22600
C1735       C  0.75126192  0.98762170  0.71508068    -0.22800
C1736       C  0.74452441  0.98116168  0.67995971     0.00200
H1737       H  0.75581928  0.02164393  0.73836380     0.14000
H1738       H  0.75672783  0.97658727  0.73738038     0.14000
Zn1739     Zn  0.76753952  0.27027512  0.86624790     1.49700
Zn1740     Zn  0.76724140  0.23035350  0.92876053     1.49400
Zn1741     Zn  0.73060518  0.27049132  0.93137874     1.49100
Zn1742     Zn  0.72820511  0.23377751  0.86528402     1.49500
O1743       O  0.74848420  0.25114433  0.89805941    -1.82900
O1744       O  0.80036196  0.26346747  0.87660280    -0.73600
O1745       O  0.76231252  0.23579022  0.98440419    -0.73400
O1746       O  0.73733284  0.30372598  0.92247165    -0.72900
O1747       O  0.80085840  0.23555587  0.91799365    -0.73600
O1748       O  0.76250476  0.30359371  0.87694161    -0.73200
O1749       O  0.73693794  0.26371399  0.98582791    -0.73800
O1750       O  0.69527705  0.24115391  0.87556079    -0.73200
O1751       O  0.75901365  0.19726339  0.91777554    -0.73900
O1752       O  0.69720793  0.26540014  0.92263632    -0.73300
O1753       O  0.73221583  0.20042724  0.87503390    -0.73800
O1754       O  0.73447209  0.23920447  0.81030995    -0.73700
O1755       O  0.76201752  0.26483360  0.81090489    -0.73500
C1756       C  0.81125030  0.24952739  0.89706328     0.78300
C1757       C  0.74979477  0.24955862  0.00241538     0.78800
C1758       C  0.75018143  0.31430728  0.89998070     0.77800
C1759       C  0.68570647  0.25349636  0.89993828     0.78100
C1760       C  0.74455706  0.18811839  0.89590836     0.79300
C1761       C  0.74841477  0.25194317  0.79328223     0.78300
Zn1762     Zn  0.73137660  0.26998888  0.67821084     1.49700
Zn1763     Zn  0.77071500  0.26727713  0.61600379     1.49400
Zn1764     Zn  0.76816814  0.23043443  0.68163927     1.49100
Zn1765     Zn  0.73108765  0.23066310  0.61580288     1.49500
O1766       O  0.75029371  0.24963762  0.64793897    -1.82900
O1767       O  0.73819212  0.30292265  0.66583862    -0.73600
O1768       O  0.80362776  0.26003686  0.62719432    -0.73400
O1769       O  0.76180637  0.23717790  0.73615705    -0.72900
O1770       O  0.76594661  0.30069106  0.62484560    -0.73600
O1771       O  0.73662470  0.26525725  0.73391057    -0.73200
O1772       O  0.80156462  0.23493727  0.67257789    -0.73800
O1773       O  0.73726964  0.19746694  0.62529671    -0.73200
O1774       O  0.76496846  0.26145698  0.56090165    -0.73900
O1775       O  0.76164271  0.19739459  0.67225044    -0.73300
O1776       O  0.73665849  0.23663511  0.56080744    -0.73800
O1777       O  0.69783954  0.23645370  0.62638734    -0.73700
O1778       O  0.69804957  0.26399454  0.66794115    -0.73500
C1779       C  0.75244918  0.31250775  0.64437653     0.78300
C1780       C  0.81331849  0.24691791  0.65054408     0.78800
C1781       C  0.74900494  0.25149022  0.75234007     0.77800
C1782       C  0.74955525  0.18677803  0.64869709     0.78100
C1783       C  0.75076927  0.24907667  0.54355677     0.79300
C1784       C  0.68717114  0.25017860  0.64742890     0.78300
N1785       N  0.49953419  0.26226441  0.62644122    -0.02300
C1786       C  0.51839294  0.26134397  0.60470728     0.00300
C1787       C  0.51214513  0.25847043  0.56799719    -0.22600
C1788       C  0.48888576  0.25800112  0.56688380    -0.22800
C1789       C  0.48155735  0.25963880  0.60307102     0.00200
H1790       H  0.52342209  0.25683811  0.54460962     0.14000
H1791       H  0.47841098  0.25647307  0.54238219     0.14000
N1792       N  0.49879677  0.26566769  0.90400875    -0.02300
C1793       C  0.47984887  0.26360881  0.92522947     0.00300
C1794       C  0.48579979  0.25968686  0.96184058    -0.22600
C1795       C  0.50905664  0.25961974  0.96349415    -0.22800
C1796       C  0.51659206  0.26322780  0.92782861     0.00200
H1797       H  0.47434580  0.25661403  0.98461517     0.14000
H1798       H  0.51944098  0.25653017  0.98774580     0.14000
N1799       N  0.24956937  0.99452191  0.87903485    -0.02300
C1800       C  0.25315498  0.97552096  0.85842936     0.00300
C1801       C  0.26060911  0.98114087  0.82328686    -0.22600
C1802       C  0.26105550  0.00435486  0.82157048    -0.22800
C1803       C  0.25414128  0.01212425  0.85584156     0.00200
H1804       H  0.26518802  0.96952009  0.80133415     0.14000
H1805       H  0.26614045  0.01452833  0.79806972     0.14000
N1806       N  0.25073956  0.99720554  0.65540636    -0.02300
C1807       C  0.24978238  0.97930287  0.67924037     0.00300
C1808       C  0.24856662  0.98683970  0.71545262    -0.22600
C1809       C  0.24822404  0.01010541  0.71403182    -0.22800
C1810       C  0.24901914  0.01602199  0.67696233     0.00200
H1811       H  0.24793274  0.97647161  0.74018131     0.14000
H1812       H  0.24774303  0.02147569  0.73752834     0.14000
N1813       N  0.99821270  0.25109257  0.87396433    -0.02300
C1814       C  0.97962393  0.25137783  0.85154469     0.00300
C1815       C  0.98594127  0.25331187  0.81484956    -0.22600
C1816       C  0.00921610  0.25303985  0.81433703    -0.22800
C1817       C  0.01639323  0.25112947  0.85078694     0.00200
H1818       H  0.97480474  0.25496452  0.79107758     0.14000
H1819       H  0.01983816  0.25427054  0.79004403     0.14000
N1820       N  0.00126374  0.23944006  0.65282524    -0.02300
C1821       C  0.01962677  0.23615780  0.67510446     0.00300
C1822       C  0.01302606  0.23328606  0.71151466    -0.22600
C1823       C  0.98976945  0.23389295  0.71163651    -0.22800
C1824       C  0.98293005  0.23736954  0.67536377     0.00200
H1825       H  0.02391255  0.23142497  0.73551620     0.14000
H1826       H  0.97893983  0.23211427  0.73558409     0.14000
Zn1827     Zn  0.26788627  0.26470657  0.85023705     1.49700
Zn1828     Zn  0.22998579  0.26375696  0.91441439     1.49400
Zn1829     Zn  0.23089887  0.22582526  0.85047608     1.49100
Zn1830     Zn  0.26935088  0.22640785  0.91438749     1.49500
O1831       O  0.24955162  0.24515203  0.88245997    -1.82900
O1832       O  0.26261236  0.29776493  0.86212840    -0.73600
O1833       O  0.19660814  0.25860837  0.90284747    -0.73400
O1834       O  0.23632877  0.23165536  0.79520468    -0.72900
O1835       O  0.23709508  0.29688645  0.90738074    -0.73600
O1836       O  0.26142400  0.25965138  0.79536975    -0.73200
O1837       O  0.19778148  0.23151448  0.86047378    -0.73800
O1838       O  0.26382746  0.19302648  0.90487936    -0.73200
O1839       O  0.23548881  0.25724405  0.96895987    -0.73900
O1840       O  0.23743313  0.19286861  0.86086112    -0.73300
O1841       O  0.26397830  0.23251982  0.96951365    -0.73800
O1842       O  0.30240499  0.23272306  0.90316534    -0.73700
O1843       O  0.30111508  0.25860042  0.85884515    -0.73500
C1844       C  0.25019835  0.30781389  0.88582930     0.78300
C1845       C  0.18649025  0.24503478  0.88077985     0.78800
C1846       C  0.24876720  0.24577588  0.77787433     0.77800
C1847       C  0.25072851  0.18230354  0.88290761     0.78100
C1848       C  0.24975761  0.24502027  0.98658858     0.79300
C1849       C  0.31249959  0.24582603  0.88041871     0.78300
Zn1850     Zn  0.23115307  0.22633603  0.66364339     1.49700
Zn1851     Zn  0.26681165  0.26684579  0.66491434     1.49400
Zn1852     Zn  0.27045017  0.22810668  0.60100857     1.49100
Zn1853     Zn  0.23003433  0.26377935  0.59878122     1.49500
O1854       O  0.24970203  0.24616390  0.63215905    -1.82900
O1855       O  0.23642491  0.23196375  0.71894439    -0.73600
O1856       O  0.30048499  0.26334725  0.65602800    -0.73400
O1857       O  0.26700764  0.19453685  0.61239425    -0.72900
O1858       O  0.26101165  0.26041576  0.71970518    -0.73600
O1859       O  0.23897248  0.19348734  0.65367193    -0.73200
O1860       O  0.30303414  0.23754228  0.61117615    -0.73800
O1861       O  0.23612911  0.25734527  0.54444076    -0.73200
O1862       O  0.25865601  0.29976956  0.65428955    -0.73900
O1863       O  0.26425366  0.23227231  0.54550574    -0.73300
O1864       O  0.23423378  0.29713562  0.60780819    -0.73800
O1865       O  0.19711052  0.25718758  0.60796543    -0.73700
O1866       O  0.19775542  0.23169066  0.65342727    -0.73500
C1867       C  0.24868630  0.24606985  0.73673095     0.78300
C1868       C  0.31226035  0.25139104  0.63383826     0.78800
C1869       C  0.25371292  0.18354932  0.63361028     0.77800
C1870       C  0.25006784  0.24447164  0.52759357     0.78100
C1871       C  0.24568052  0.30915579  0.63032485     0.79300
C1872       C  0.18691377  0.24430716  0.63069458     0.78300
C1873       C  0.08155946  0.22156746  0.65880907    -0.10700
C1874       C  0.08956255  0.24212363  0.64463617     0.11900
C1875       C  0.07416482  0.25988860  0.63653096    -0.02500
C1876       C  0.05127144  0.25713523  0.64633501    -0.05200
C1877       C  0.04357107  0.23713280  0.66311528    -0.16000
C1878       C  0.05869092  0.21865255  0.66823397     0.02900
C1879       C  0.11440204  0.24461352  0.64055979     0.12900
C1880       C  0.08193212  0.28157143  0.61787284     0.63500
H1881       H  0.03924980  0.27076274  0.64169069     0.12900
C1882       C  0.05088134  0.19586813  0.68315041     0.55600
H1883       H  0.09366479  0.20804025  0.66370813     0.08700
C1884       C  0.12841771  0.24921638  0.67164877    -0.05100
C1885       C  0.15203144  0.24910253  0.66692313    -0.05900
C1886       C  0.16189359  0.24479333  0.63229386    -0.15400
C1887       C  0.14785261  0.24075444  0.60092725    -0.01000
C1888       C  0.12416864  0.24049016  0.60580025    -0.08600
C1889       C  0.11849599  0.25373363  0.70983794     0.65700
H1890       H  0.16308846  0.25221414  0.69045958     0.11100
C1891       C  0.15778243  0.23591163  0.56292458     0.64100
H1892       H  0.11303442  0.23671171  0.58264503     0.08500
F1893       F  0.04575066  0.19762269  0.72038660    -0.19000
F1894       F  0.06750019  0.17941365  0.67945931    -0.15200
F1895       F  0.03190951  0.18862036  0.66389002    -0.18700
F1896       F  0.09079630  0.27658692  0.58336494    -0.22100
F1897       F  0.09841039  0.29200525  0.63919278    -0.23500
F1898       F  0.06421640  0.29673311  0.61290221    -0.17500
F1899       F  0.14115587  0.23045236  0.53719869    -0.20000
F1900       F  0.17274729  0.21787551  0.56524025    -0.21200
F1901       F  0.16911055  0.25481224  0.55004128    -0.18400
F1902       F  0.13497976  0.26034052  0.73504868    -0.18400
F1903       F  0.10834792  0.23430220  0.72321573    -0.22300
F1904       F  0.10248871  0.27084607  0.70781240    -0.23900
C1905       C  0.12483614  0.23874498  0.84783403    -0.10700
C1906       C  0.11313736  0.24842518  0.87757455     0.11900
C1907       C  0.12522191  0.25580791  0.90923460    -0.02500
C1908       C  0.14907830  0.25417503  0.90922259    -0.05200
C1909       C  0.16111645  0.24514606  0.87882496    -0.16000
C1910       C  0.14863479  0.23710302  0.84746178     0.02900
C1911       C  0.08812721  0.25061131  0.87403824     0.12900
C1912       C  0.11288698  0.26525325  0.94279635     0.63500
H1913       H  0.15851712  0.25992637  0.93325317     0.12900
C1914       C  0.15996781  0.22732955  0.81310511     0.55600
H1915       H  0.11495825  0.23278331  0.82439100     0.08700
C1916       C  0.07808408  0.26805695  0.85256027    -0.05100
C1917       C  0.05447507  0.26787827  0.84726912    -0.05900
C1918       C  0.04076148  0.25044999  0.86137243    -0.15400
C1919       C  0.05102160  0.23247524  0.88166260    -0.01000
C1920       C  0.07449081  0.23342018  0.88882544    -0.08600
C1921       C  0.09229744  0.28640876  0.83436840     0.65700
H1922       H  0.04649429  0.28118201  0.83108273     0.11100
C1923       C  0.03865485  0.21131865  0.89432906     0.64100
H1924       H  0.08255793  0.21981255  0.90427006     0.08500
F1925       F  0.14449003  0.22270687  0.78513512    -0.19000
F1926       F  0.17075844  0.20719281  0.82196386    -0.15200
F1927       F  0.17548643  0.24265034  0.79913938    -0.18700
F1928       F  0.09878207  0.24885971  0.95740523    -0.22100
F1929       F  0.09998187  0.28384192  0.93258648    -0.23500
F1930       F  0.12780094  0.27197143  0.97043175    -0.17500
F1931       F  0.05140761  0.19231760  0.88576541    -0.20000
F1932       F  0.01774571  0.20864600  0.87755353    -0.21200
F1933       F  0.03584437  0.21219807  0.93233427    -0.18400
F1934       F  0.07895333  0.30258994  0.81693448    -0.18400
F1935       F  0.10630063  0.27688643  0.80792889    -0.22300
F1936       F  0.10544884  0.29725062  0.86072461    -0.23900
C1937       C  0.01170595  0.26337087  0.97443134    -0.10700
C1938       C  0.99955126  0.24614201  0.99220129     0.11900
C1939       C  0.98509631  0.23200056  0.97109956    -0.02500
C1940       C  0.98570983  0.23364083  0.93219091    -0.05200
C1941       C  0.99825217  0.25057052  0.91410932    -0.16000
C1942       C  0.01007797  0.26678871  0.93589715     0.02900
C1943       C  0.00130002  0.24392983  0.53447430     0.12900
C1944       C  0.96807735  0.21639499  0.98962970     0.63500
H1945       H  0.97601853  0.22191223  0.91551459     0.12900
C1946       C  0.01968169  0.28874836  0.92080362     0.55600
H1947       H  0.02157290  0.27505518  0.99116394     0.08700
C1948       C  0.01561067  0.22827471  0.55291168    -0.05100
C1949       C  0.01429217  0.22668119  0.59175318    -0.05900
C1950       C  0.00160742  0.24219014  0.61287811    -0.15400
C1951       C  0.99019771  0.26014639  0.59426406    -0.01000
C1952       C  0.98895904  0.25972503  0.55530340    -0.08600
C1953       C  0.03323772  0.21451618  0.53201749     0.65700
H1954       H  0.02365220  0.21355679  0.60609270     0.11100
C1955       C  0.98070173  0.28094275  0.61337964     0.64100
H1956       H  0.97924605  0.27265291  0.54083342     0.08500
F1957       F  0.01182768  0.30666197  0.94197567    -0.19000
F1958       F  0.01326256  0.29298143  0.88454869    -0.15200
F1959       F  0.04308569  0.28819453  0.92315950    -0.18700
F1960       F  0.95430023  0.22800338  0.51310664    -0.22100
F1961       F  0.97982496  0.19964298  0.51290597    -0.23500
F1962       F  0.95513175  0.20472195  0.96385592    -0.17500
F1963       F  0.98895387  0.30018653  0.59615316    -0.20000
F1964       F  0.98686904  0.28223818  0.65033079    -0.21200
F1965       F  0.95731852  0.28097911  0.61032635    -0.18400
F1966       F  0.04604072  0.20107609  0.55570169    -0.18400
F1967       F  0.04781868  0.22910469  0.51391134    -0.22300
F1968       F  0.02305587  0.20057929  0.50616458    -0.23900
C1969       C  0.23354818  0.07757044  0.65767755    -0.10700
C1970       C  0.25415454  0.08589999  0.64410032     0.11900
C1971       C  0.27286833  0.07102331  0.64003527    -0.02500
C1972       C  0.26999229  0.04791425  0.64871734    -0.05200
C1973       C  0.24962452  0.03979492  0.66363603    -0.16000
C1974       C  0.23101066  0.05478546  0.66827901     0.02900
C1975       C  0.25601456  0.11079290  0.63867265     0.12900
C1976       C  0.29605669  0.07975002  0.62880492     0.63500
H1977       H  0.28407074  0.03621086  0.64604556     0.12900
C1978       C  0.20876361  0.04710286  0.68536675     0.55600
H1979       H  0.21972200  0.08944483  0.66155512     0.08700
C1980       C  0.24808325  0.12181722  0.60612860    -0.05100
C1981       C  0.24826747  0.14571928  0.60493551    -0.05900
C1982       C  0.25553477  0.15859398  0.63548387    -0.15400
C1983       C  0.26380592  0.14753521  0.66768205    -0.01000
C1984       C  0.26380636  0.12372139  0.66876336    -0.08600
C1985       C  0.23899339  0.10840267  0.57330622     0.65700
H1986       H  0.24207647  0.15458354  0.58057135     0.11100
C1987       C  0.27282967  0.16091684  0.70053312     0.64100
H1988       H  0.26942845  0.11491990  0.69355725     0.08500
F1989       F  0.19209900  0.06357533  0.68228617    -0.19000
F1990       F  0.21189747  0.04254118  0.72264236    -0.15200
F1991       F  0.20092161  0.02781325  0.66786382    -0.18700
F1992       F  0.30421214  0.09424339  0.65584484    -0.22100
F1993       F  0.29463856  0.09132447  0.59554817    -0.23500
F1994       F  0.31155744  0.06229205  0.62458552    -0.17500
F1995       F  0.25560428  0.17369985  0.71594718    -0.20000
F1996       F  0.28997482  0.17517885  0.68885660    -0.21200
F1997       F  0.28156175  0.14689918  0.72793870    -0.18400
F1998       F  0.23243633  0.12241604  0.54433416    -0.18400
F1999       F  0.22033219  0.09590365  0.58400957    -0.22300
F2000       F  0.25547670  0.09380878  0.56024679    -0.23900
C2001       C  0.23197900  0.07195794  0.87100659    -0.10700
C2002       C  0.25229602  0.08423413  0.87112817     0.11900
C2003       C  0.27327385  0.07261398  0.86852412    -0.02500
C2004       C  0.27310723  0.04885703  0.86551825    -0.05200
C2005       C  0.25277114  0.03657855  0.86484226    -0.16000
C2006       C  0.23180618  0.04825889  0.86684677     0.02900
C2007       C  0.25108915  0.10931063  0.87388081     0.12900
C2008       C  0.29566440  0.08530213  0.86790383     0.63500
H2009       H  0.28890517  0.03961252  0.86280174     0.12900
C2010       C  0.20937050  0.03591497  0.86350833     0.55600
H2011       H  0.21617988  0.08121566  0.87354339     0.08700
C2012       C  0.24563571  0.12309744  0.84296079    -0.05100
C2013       C  0.24576024  0.14675063  0.84744422    -0.05900
C2014       C  0.25116722  0.15704658  0.88159194    -0.15400
C2015       C  0.25624736  0.14305656  0.91278115    -0.01000
C2016       C  0.25574360  0.11935352  0.90828559    -0.08600
C2017       C  0.23973442  0.11291653  0.80537713     0.65700
H2018       H  0.24182365  0.15747278  0.82387684     0.11100
C2019       C  0.26204242  0.15274723  0.95072539     0.64100
H2020       H  0.25946066  0.10830172  0.93155518     0.08500
F2021       F  0.19127408  0.05080868  0.86054456    -0.19000
F2022       F  0.20614725  0.02277230  0.89467860    -0.15200
F2023       F  0.20926780  0.02227322  0.83228401    -0.18700
F2024       F  0.29876127  0.09678692  0.90093386    -0.22100
F2025       F  0.29571177  0.10066954  0.83891822    -0.23500
F2026       F  0.31391778  0.07079609  0.86327350    -0.17500
F2027       F  0.24532229  0.16773716  0.96178840    -0.20000
F2028       F  0.28267100  0.16380329  0.94921068    -0.21200
F2029       F  0.26378329  0.13600051  0.97755465    -0.18400
F2030       F  0.23640074  0.12943218  0.77856131    -0.18400
F2031       F  0.21998504  0.10046831  0.80804368    -0.22300
F2032       F  0.25707596  0.09890611  0.79356523    -0.23900
C2033       C  0.26658993  0.98458720  0.55598653    -0.10700
C2034       C  0.24962588  0.99642821  0.53660787     0.11900
C2035       C  0.23314343  0.00878714  0.55675437    -0.02500
C2036       C  0.23379897  0.00800101  0.59575679    -0.05200
C2037       C  0.25119703  0.99679568  0.61523745    -0.16000
C2038       C  0.26869634  0.98604395  0.59480271     0.02900
C2039       C  0.24941729  0.99602552  0.99782949     0.12900
C2040       C  0.21529851  0.02321804  0.53732810     0.63500
H2041       H  0.22077901  0.01644187  0.61150045     0.12900
C2042       C  0.29073602  0.97763942  0.61166344     0.55600
H2043       H  0.27921681  0.97525193  0.54039613     0.08700
C2044       C  0.26589717  0.00817469  0.97742503    -0.05100
C2045       C  0.26511486  0.00733330  0.93842745    -0.05900
C2046       C  0.24792519  0.99576217  0.91910823    -0.15400
C2047       C  0.23086294  0.98442550  0.93975408    -0.01000
C2048       C  0.23260456  0.98391134  0.97870799    -0.08600
C2049       C  0.28429349  0.02194823  0.99657497     0.65700
H2050       H  0.27835792  0.01536430  0.92250472     0.11100
C2051       C  0.21002478  0.97348153  0.92279613     0.64100
H2052       H  0.22010278  0.97460316  0.99455238     0.08500
F2053       F  0.30875302  0.98661176  0.59207385    -0.19000
F2054       F  0.29169597  0.95428112  0.60914618    -0.15200
F2055       F  0.29344017  0.98412595  0.64821493    -0.18700
F2056       F  0.20056066  0.00959916  0.51755019    -0.22100
F2057       F  0.22565406  0.03822626  0.51329341    -0.23500
F2058       F  0.20264962  0.03574277  0.56232490    -0.17500
F2059       F  0.21084992  0.95032861  0.92863832    -0.20000
F2060       F  0.20789045  0.97762258  0.88527893    -0.21200
F2061       F  0.19082583  0.98202408  0.93980970    -0.18400
F2062       F  0.29665058  0.03466016  0.97148799    -0.18400
F2063       F  0.29975577  0.00833467  0.51312223    -0.22300
F2064       F  0.27518754  0.03741390  0.51902314    -0.23900
C2065       C  0.41580798  0.27024554  0.92018500    -0.10700
C2066       C  0.41024950  0.25368896  0.89395859     0.11900
C2067       C  0.42770736  0.24232427  0.87456128    -0.02500
C2068       C  0.45042818  0.24694599  0.88418358    -0.05200
C2069       C  0.45601394  0.26280908  0.91185422    -0.16000
C2070       C  0.43835192  0.27521753  0.92945537     0.02900
C2071       C  0.38579814  0.24897721  0.88790225     0.12900
C2072       C  0.42231803  0.22515294  0.84445731     0.63500
H2073       H  0.46397507  0.23746069  0.87121328     0.12900
C2074       C  0.44188720  0.29356303  0.95855766     0.55600
H2075       H  0.40219550  0.27921766  0.93409537     0.08700
C2076       C  0.37310832  0.23598954  0.91338734    -0.05100
C2077       C  0.34943502  0.23491308  0.90899680    -0.05900
C2078       C  0.33794304  0.24652969  0.88028186    -0.15400
C2079       C  0.35104695  0.25874550  0.85365005    -0.01000
C2080       C  0.37475497  0.25987224  0.85843013    -0.08600
C2081       C  0.38450518  0.22367751  0.94558312     0.65700
H2082       H  0.33966526  0.22541485  0.92900675     0.11100
C2083       C  0.34054604  0.27078635  0.82037434     0.64100
H2084       H  0.38495163  0.26995101  0.83974547     0.08500
F2085       F  0.43492894  0.28546670  0.99268910    -0.19000
F2086       F  0.42888673  0.31234681  0.94949843    -0.15200
F2087       F  0.46406638  0.30074946  0.96161668    -0.18700
F2088       F  0.41083005  0.23567433  0.81568582    -0.22100
F2089       F  0.40894199  0.20803085  0.85861700    -0.23500
F2090       F  0.44177582  0.21540006  0.83012847    -0.17500
F2091       F  0.32739137  0.28880633  0.83219492    -0.20000
F2092       F  0.32740500  0.25575768  0.80020581    -0.21200
F2093       F  0.35684077  0.27934713  0.79664071    -0.18400
F2094       F  0.36921893  0.21097953  0.96588293    -0.18400
F2095       F  0.39444525  0.23912645  0.96935229    -0.22300
F2096       F  0.40101124  0.20915505  0.93236130    -0.23900
C2097       C  0.42098295  0.23892545  0.61474657    -0.10700
C2098       C  0.41007517  0.25879302  0.62626529     0.11900
C2099       C  0.42308282  0.27834169  0.63439371    -0.02500
C2100       C  0.44667882  0.27774499  0.62798353    -0.05200
C2101       C  0.45730040  0.25831191  0.61374541    -0.16000
C2102       C  0.44440759  0.23834557  0.60784011     0.02900
C2103       C  0.38488142  0.25847485  0.62823153     0.12900
C2104       C  0.41201108  0.29966540  0.64944787     0.63500
H2105       H  0.45692773  0.29265896  0.63292449     0.12900
C2106       C  0.45511687  0.21653119  0.59375198     0.55600
H2107       H  0.41069861  0.22405985  0.60957237     0.08700
C2108       C  0.37125376  0.26066400  0.59590281    -0.05100
C2109       C  0.34759678  0.25836227  0.59913375    -0.05900
C2110       C  0.33725299  0.25406524  0.63341549    -0.15400
C2111       C  0.35088547  0.25187281  0.66577941    -0.01000
C2112       C  0.37460648  0.25400829  0.66250196    -0.08600
C2113       C  0.38168092  0.26516152  0.55807678     0.65700
H2114       H  0.33689102  0.25987369  0.57474487     0.11100
C2115       C  0.34054623  0.24649626  0.70329494     0.64100
H2116       H  0.38542284  0.25194726  0.68664661     0.08500
F2117       F  0.46108555  0.21893894  0.55694009    -0.19000
F2118       F  0.44032453  0.19841169  0.59626982    -0.15200
F2119       F  0.47423106  0.21126658  0.61439509    -0.18700
F2120       F  0.40216270  0.29505472  0.68336312    -0.22100
F2121       F  0.39546684  0.30728445  0.62514496    -0.23500
F2122       F  0.42757840  0.31693190  0.65447838    -0.17500
F2123       F  0.35699304  0.24227907  0.72997794    -0.20000
F2124       F  0.32699821  0.22745221  0.70053469    -0.21200
F2125       F  0.32758982  0.26462366  0.71517535    -0.18400
F2126       F  0.36530608  0.26784238  0.53075451    -0.18400
F2127       F  0.39541947  0.24721228  0.54802261    -0.22300
F2128       F  0.39451588  0.28471670  0.55923677    -0.23900
C2129       C  0.51107067  0.28101745  0.72460535    -0.10700
C2130       C  0.49946773  0.26439256  0.74466116     0.11900
C2131       C  0.48582502  0.24845488  0.72567636    -0.02500
C2132       C  0.48663029  0.24795533  0.68670787    -0.05200
C2133       C  0.49859102  0.26433824  0.66638355    -0.16000
C2134       C  0.50963487  0.28213368  0.68575970     0.02900
C2135       C  0.50053365  0.26520208  0.78564187     0.12900
C2136       C  0.46957768  0.23301118  0.74636538     0.63500
H2137       H  0.47764375  0.23489962  0.67178681     0.12900
C2138       C  0.51873867  0.30325943  0.66721430     0.55600
H2139       H  0.52040526  0.29392647  0.73963234     0.08700
C2140       C  0.51512376  0.25090879  0.80621505    -0.05100
C2141       C  0.51319637  0.25080595  0.84501634    -0.05900
C2142       C  0.50000825  0.26694894  0.86392919    -0.15400
C2143       C  0.48802778  0.28352890  0.84289763    -0.01000
C2144       C  0.48734719  0.28138733  0.80409136    -0.08600
C2145       C  0.53357187  0.23702898  0.78749403     0.65700
H2146       H  0.52213238  0.23808022  0.86080542     0.11100
C2147       C  0.47678704  0.30433523  0.85927179     0.64100
H2148       H  0.47721556  0.29315002  0.78782697     0.08500
F2149       F  0.54217273  0.30257264  0.66702547    -0.19000
F2150       F  0.51186202  0.32221209  0.68683291    -0.15200
F2151       F  0.51073691  0.30575153  0.63139791    -0.18700
F2152       F  0.45444554  0.24608877  0.76632480    -0.22100
F2153       F  0.48118801  0.21902232  0.77062797    -0.23500
F2154       F  0.45723764  0.21946546  0.72232538    -0.17500
F2155       F  0.48396083  0.32339149  0.84025410    -0.20000
F2156       F  0.48221084  0.30752201  0.89614063    -0.21200
F2157       F  0.45351094  0.30257915  0.85552518    -0.18400
F2158       F  0.54660017  0.22519574  0.81307734    -0.18400
F2159       F  0.54777672  0.25142916  0.76822168    -0.22300
F2160       F  0.52434910  0.22162626  0.76293105    -0.23900
C2161       C  0.62410121  0.26237140  0.66746692    -0.10700
C2162       C  0.61359866  0.24943874  0.63980241     0.11900
C2163       C  0.62702372  0.23601850  0.61588748    -0.02500
C2164       C  0.65077216  0.23653374  0.62001189    -0.05200
C2165       C  0.66165191  0.25001855  0.64708434    -0.16000
C2166       C  0.64785996  0.26276994  0.67209345     0.02900
C2167       C  0.58886950  0.25280587  0.63343991     0.12900
C2168       C  0.61632217  0.22137850  0.58583552     0.63500
H2169       H  0.66105026  0.22661182  0.60123718     0.12900
C2170       C  0.65766751  0.27693798  0.70352034     0.55600
H2171       H  0.61336835  0.27278167  0.68486126     0.08700
C2172       C  0.57192840  0.24187939  0.65462258    -0.05100
C2173       C  0.54892509  0.24576058  0.64547549    -0.05900
C2174       C  0.54250754  0.26107507  0.61732037    -0.15400
C2175       C  0.55969482  0.27349936  0.59857165    -0.01000
C2176       C  0.58250111  0.26859766  0.60637507    -0.08600
C2177       C  0.57815369  0.22628612  0.68662418     0.65700
H2178       H  0.53581702  0.23634586  0.65962506     0.11100
C2179       C  0.55538862  0.29236852  0.57060501     0.64100
H2180       H  0.59568121  0.27753348  0.59141315     0.08500
F2181       F  0.64090436  0.28614754  0.72573775    -0.19000
F2182       F  0.67013132  0.29470568  0.68915761    -0.15200
F2183       F  0.67130009  0.26355792  0.72596728    -0.18700
F2184       F  0.60474067  0.23479693  0.56062785    -0.22100
F2185       F  0.60134816  0.20623895  0.60163534    -0.23500
F2186       F  0.63239383  0.20902030  0.56651235    -0.17500
F2187       F  0.56830789  0.31106093  0.58010565    -0.20000
F2188       F  0.53309620  0.29945079  0.56911253    -0.21200
F2189       F  0.56181492  0.28509403  0.53570583    -0.18400
F2190       F  0.55915952  0.21671215  0.70267512    -0.18400
F2191       F  0.58951727  0.23843571  0.71367669    -0.22300
F2192       F  0.59198928  0.20894002  0.67434984    -0.23900
C2193       C  0.87514146  0.23540689  0.67915290    -0.10700
C2194       C  0.88678176  0.24600996  0.65025137     0.11900
C2195       C  0.87457581  0.25592083  0.62062622    -0.02500
C2196       C  0.85070616  0.25569358  0.62189406    -0.05200
C2197       C  0.83871600  0.24568608  0.65155678    -0.16000
C2198       C  0.85133279  0.23516591  0.68083867     0.02900
C2199       C  0.91188749  0.24608409  0.65248065     0.12900
C2200       C  0.88673830  0.26650102  0.58781651     0.63500
H2201       H  0.84123754  0.26333718  0.59932635     0.12900
C2202       C  0.84027780  0.22394733  0.71423287     0.55600
H2203       H  0.88513989  0.22751361  0.70091473     0.08700
C2204       C  0.92351348  0.26086637  0.67686809    -0.05100
C2205       C  0.94685571  0.25760570  0.68242771    -0.05900
C2206       C  0.95880576  0.24005595  0.66479493    -0.15400
C2207       C  0.94707374  0.22503692  0.64080028    -0.01000
C2208       C  0.92382937  0.22880339  0.63425652    -0.08600
C2209       C  0.91125198  0.27966013  0.69763069     0.65700
H2210       H  0.95600943  0.26856495  0.70135522     0.11100
C2211       C  0.95752829  0.20405769  0.62341154     0.64100
H2212       H  0.91452887  0.21720286  0.61654243     0.08500
F2213       F  0.85612284  0.21625134  0.73981634    -0.19000
F2214       F  0.82772330  0.20542944  0.70281089    -0.15200
F2215       F  0.82645231  0.23934022  0.73226707    -0.18700
F2216       F  0.89944725  0.25018847  0.56981471    -0.22100
F2217       F  0.90099452  0.28355652  0.59988021    -0.23500
F2218       F  0.87168470  0.27575086  0.56235950    -0.17500
F2219       F  0.94374965  0.18555191  0.63006895    -0.20000
F2220       F  0.97877286  0.19887492  0.63730684    -0.21200
F2221       F  0.95913056  0.20723815  0.58553188    -0.18400
F2222       F  0.92615289  0.29316965  0.71747137    -0.18400
F2223       F  0.89600878  0.27045860  0.72242243    -0.22300
F2224       F  0.89966662  0.29337683  0.67286657    -0.23900
C2225       C  0.62505034  0.25225985  0.93553716    -0.10700
C2226       C  0.61277652  0.25531453  0.90253480     0.11900
C2227       C  0.62440816  0.25787218  0.86851326    -0.02500
C2228       C  0.64828540  0.25684150  0.86874814    -0.05200
C2229       C  0.66062501  0.25397198  0.90190092    -0.16000
C2230       C  0.64885105  0.25128208  0.93589704     0.02900
C2231       C  0.58773655  0.25676827  0.90532254     0.12900
C2232       C  0.61167199  0.26205839  0.83238626     0.63500
H2233       H  0.65757335  0.25881775  0.84308069     0.12900
C2234       C  0.66118478  0.24670339  0.97228948     0.55600
H2235       H  0.61569304  0.25073302  0.96123193     0.08700
C2236       C  0.57411511  0.23725396  0.91010995    -0.05100
C2237       C  0.55082905  0.24016823  0.91676995    -0.05900
C2238       C  0.54084543  0.26175695  0.91772612    -0.15400
C2239       C  0.55444192  0.28122368  0.91307310    -0.01000
C2240       C  0.57782400  0.27837700  0.90703879    -0.08600
C2241       C  0.58412607  0.21351543  0.90854756     0.65700
H2242       H  0.54011588  0.22556555  0.92148817     0.11100
C2243       C  0.54436760  0.30481729  0.91562684     0.64100
H2244       H  0.58871258  0.29303637  0.90432240     0.08500
F2245       F  0.67603703  0.22871391  0.96802777    -0.19000
F2246       F  0.64630621  0.24122545  0.00053439    -0.15200
F2247       F  0.67310424  0.26574021  0.98312664    -0.18700
F2248       F  0.60016551  0.28245284  0.83428191    -0.22100
F2249       F  0.59625489  0.24486825  0.82609712    -0.23500
F2250       F  0.62617753  0.26297392  0.80230887    -0.17500
F2251       F  0.56078165  0.32145259  0.91271196    -0.20000
F2252       F  0.53355503  0.30750506  0.94934238    -0.21200
F2253       F  0.52890448  0.30793588  0.88720196    -0.18400
F2254       F  0.56760998  0.19701567  0.91204483    -0.18400
F2255       F  0.59963196  0.21053000  0.93699920    -0.22300
F2256       F  0.59489596  0.21024807  0.87498314    -0.23900
C2257       C  0.87478348  0.24544318  0.92004020    -0.10700
C2258       C  0.88417912  0.25150357  0.88577155     0.11900
C2259       C  0.86972131  0.25670117  0.85546505    -0.02500
C2260       C  0.84615372  0.25563656  0.86065554    -0.05200
C2261       C  0.83651817  0.24955642  0.89491283    -0.16000
C2262       C  0.85111127  0.24464729  0.92545511     0.02900
C2263       C  0.90922796  0.25095627  0.88150551     0.12900
C2264       C  0.87911645  0.26329712  0.81769251     0.63500
H2265       H  0.83496365  0.25929684  0.83750330     0.12900
C2266       C  0.84201409  0.23919308  0.96380317     0.55600
H2267       H  0.88625957  0.24116114  0.94253347     0.08700
C2268       C  0.92338787  0.26905307  0.89291038    -0.05100
C2269       C  0.94659185  0.26825679  0.88376921    -0.05900
C2270       C  0.95571320  0.25004924  0.86374760    -0.15400
C2271       C  0.94179254  0.23129980  0.85447493    -0.01000
C2272       C  0.91874449  0.23202009  0.86405304    -0.08600
C2273       C  0.91395651  0.28914803  0.91414450     0.65700
H2274       H  0.95769870  0.28213733  0.89122641     0.11100
C2275       C  0.95108998  0.21061869  0.83443940     0.64100
H2276       H  0.90763551  0.21814632  0.85655867     0.08500
F2277       F  0.85918088  0.23798271  0.99009841    -0.19000
F2278       F  0.83108927  0.21849421  0.96320534    -0.15200
F2279       F  0.82701065  0.25591312  0.97485130    -0.18700
F2280       F  0.89099311  0.24534389  0.80259654    -0.22100
F2281       F  0.89346525  0.28166329  0.82133033    -0.23500
F2282       F  0.86207335  0.26920298  0.79292905    -0.17500
F2283       F  0.93533494  0.19328342  0.83276494    -0.20000
F2284       F  0.97006388  0.20246279  0.85277043    -0.21200
F2285       F  0.95685221  0.21624356  0.79849338    -0.18400
F2286       F  0.93051188  0.30512744  0.92163800    -0.18400
F2287       F  0.90517274  0.28188055  0.94759521    -0.22300
F2288       F  0.89696892  0.29953475  0.89371587    -0.23900
C2289       C  0.76478028  0.12415616  0.66227464    -0.10700
C2290       C  0.74498607  0.11371242  0.64928935     0.11900
C2291       C  0.72695298  0.12713426  0.63536832    -0.02500
C2292       C  0.72941566  0.15083665  0.63520922    -0.05200
C2293       C  0.74911560  0.16150558  0.64879919    -0.16000
C2294       C  0.76743946  0.14783741  0.66182560     0.02900
C2295       C  0.74310191  0.08880126  0.65388520     0.12900
C2296       C  0.70508116  0.11653682  0.62125003     0.63500
H2297       H  0.71553769  0.16129203  0.62533084     0.12900
C2298       C  0.78987886  0.15779563  0.67478703     0.55600
H2299       H  0.77808252  0.11345474  0.67354131     0.08700
C2300       C  0.75489376  0.07323873  0.63106707    -0.05100
C2301       C  0.75417691  0.05003813  0.64015528    -0.05900
C2302       C  0.74134113  0.04202280  0.67017399    -0.15400
C2303       C  0.72837385  0.05762334  0.69145338    -0.01000
C2304       C  0.73034074  0.08080922  0.68377572    -0.08600
C2305       C  0.76836274  0.08111236  0.59764033     0.65700
H2306       H  0.76424785  0.03806982  0.62450355     0.11100
C2307       C  0.71185161  0.05114754  0.72199406     0.64100
H2308       H  0.72155680  0.09292214  0.70124233     0.08500
F2309       F  0.80618422  0.14119257  0.68037647    -0.19000
F2310       F  0.78692627  0.16907556  0.70804575    -0.15200
F2311       F  0.79810209  0.17261975  0.64831964    -0.18700
F2312       F  0.69371063  0.10630519  0.65019938    -0.22100
F2313       F  0.70985160  0.10046892  0.59448960    -0.23500
F2314       F  0.69070912  0.13251886  0.60558856    -0.17500
F2315       F  0.71999065  0.05890440  0.75569673    -0.20000
F2316       F  0.70802981  0.02813684  0.72471656    -0.21200
F2317       F  0.69111322  0.06136509  0.71500657    -0.18400
F2318       F  0.77686337  0.06303155  0.57750526    -0.18400
F2319       F  0.78643450  0.09428496  0.60903161    -0.22300
F2320       F  0.75460403  0.09373971  0.57430237    -0.23900
C2321       C  0.72633304  0.12713067  0.87159470    -0.10700
C2322       C  0.74172576  0.11449447  0.89278457     0.11900
C2323       C  0.75753236  0.12579522  0.91576791    -0.02500
C2324       C  0.75738978  0.14968622  0.91660120    -0.05200
C2325       C  0.74231744  0.16270090  0.89464501    -0.16000
C2326       C  0.72608435  0.15100620  0.87204412     0.02900
C2327       C  0.74255401  0.08959593  0.88650347     0.12900
C2328       C  0.77492251  0.11262836  0.93843635     0.63500
H2329       H  0.76965724  0.15835650  0.93386722     0.12900
C2330       C  0.70857972  0.16310857  0.84789994     0.55600
H2331       H  0.71480403  0.11790797  0.85369107     0.08700
C2332       C  0.72725563  0.07427723  0.90331872    -0.05100
C2333       C  0.72853498  0.05112398  0.89384003    -0.05900
C2334       C  0.74403366  0.04310535  0.86735442    -0.15400
C2335       C  0.75919214  0.05865807  0.85024729    -0.01000
C2336       C  0.75797308  0.08163908  0.86012642    -0.08600
C2337       C  0.70909144  0.08249489  0.92987596     0.65700
H2338       H  0.71670120  0.03922132  0.90585497     0.11100
C2339       C  0.77597092  0.05207519  0.82011118     0.64100
H2340       H  0.76884816  0.09383158  0.84646239     0.08500
F2341       F  0.69418390  0.14809663  0.83005061    -0.19000
F2342       F  0.71936884  0.17564362  0.82076660    -0.15200
F2343       F  0.69526621  0.17711897  0.86959870    -0.18700
F2344       F  0.78956991  0.10132739  0.91496249    -0.22100
F2345       F  0.76417768  0.09699681  0.96083978    -0.23500
F2346       F  0.78767233  0.12670320  0.96103050    -0.17500
F2347       F  0.76545556  0.05366516  0.78588430    -0.20000
F2348       F  0.78423921  0.03035944  0.82485824    -0.21200
F2349       F  0.79445847  0.06650737  0.82021674    -0.18400
F2350       F  0.69657192  0.06471893  0.94419236    -0.18400
F2351       F  0.69435263  0.09692022  0.91146671    -0.22300
F2352       F  0.71889840  0.09396089  0.95922601    -0.23900
C2353       C  0.75748617  0.01398063  0.97930726    -0.10700
C2354       C  0.74016937  0.00229127  0.99764939     0.11900
C2355       C  0.72429290  0.98954440  0.97677986    -0.02500
C2356       C  0.72586606  0.98980582  0.93789956    -0.05200
C2357       C  0.74372452  0.00073572  0.91955848    -0.16000
C2358       C  0.76056910  0.01193895  0.94085597     0.02900
C2359       C  0.74029916  0.00104404  0.54005735     0.12900
C2360       C  0.70620639  0.97521801  0.99537720     0.63500
H2361       H  0.71321770  0.98124077  0.92135023     0.12900
C2362       C  0.78278200  0.02032992  0.92513433     0.55600
H2363       H  0.76968553  0.02350262  0.99557151     0.08700
C2364       C  0.75691871  0.98863574  0.55998174    -0.05100
C2365       C  0.75619723  0.98889173  0.59884221    -0.05900
C2366       C  0.73869546  0.99967416  0.61841581    -0.15400
C2367       C  0.72152882  0.01137808  0.59825640    -0.01000
C2368       C  0.72329450  0.01268407  0.55940452    -0.08600
C2369       C  0.77544092  0.97521066  0.54054109     0.65700
H2370       H  0.76975908  0.98103139  0.61445128     0.11100
C2371       C  0.70077925  0.02216238  0.61566243     0.64100
H2372       H  0.71074776  0.02225460  0.54381853     0.08500
F2373       F  0.80052567  0.01294383  0.94736162    -0.19000
F2374       F  0.78283584  0.04375253  0.92453982    -0.15200
F2375       F  0.78670752  0.01214341  0.88990885    -0.18700
F2376       F  0.69131197  0.98727995  0.51528656    -0.22100
F2377       F  0.71693144  0.95906040  0.52076230    -0.23500
F2378       F  0.69405247  0.96252705  0.96985847    -0.17500
F2379       F  0.70188776  0.04543853  0.61156397    -0.20000
F2380       F  0.69855921  0.01704666  0.65282186    -0.21200
F2381       F  0.68150290  0.01441314  0.59772876    -0.18400
F2382       F  0.78736873  0.96157275  0.56512831    -0.18400
F2383       F  0.79065101  0.98984812  0.52411389    -0.22300
F2384       F  0.76608145  0.96131845  0.51366252    -0.23900
C2385       C  0.73268783  0.42436947  0.91271050    -0.10700
C2386       C  0.75325519  0.41238257  0.91291405     0.11900
C2387       C  0.77394591  0.42426249  0.91695231    -0.02500
C2388       C  0.77319385  0.44778498  0.92322224    -0.05200
C2389       C  0.75258239  0.45971666  0.92406428    -0.16000
C2390       C  0.73196433  0.44794533  0.91857794     0.02900
C2391       C  0.75246206  0.38727498  0.91000122     0.12900
C2392       C  0.79664438  0.41214299  0.91451381     0.63500
H2393       H  0.78874478  0.45712507  0.92784449     0.12900
C2394       C  0.70932776  0.46011267  0.92010076     0.55600
H2395       H  0.71712477  0.41491866  0.90892722     0.08700
C2396       C  0.74865561  0.37341029  0.94142300    -0.05100
C2397       C  0.74816627  0.34974931  0.93673326    -0.05900
C2398       C  0.75111474  0.33955030  0.90177964    -0.15400
C2399       C  0.75432821  0.35361637  0.87010523    -0.01000
C2400       C  0.75493430  0.37731843  0.87496032    -0.08600
C2401       C  0.74496919  0.38359693  0.97971047     0.65700
H2402       H  0.74558466  0.33894505  0.96064168     0.11100
C2403       C  0.75651008  0.34394265  0.83119235     0.64100
H2404       H  0.75743037  0.38839635  0.85135226     0.08500
F2405       F  0.69130125  0.44530802  0.91611633    -0.19000
F2406       F  0.70807982  0.47578575  0.89173328    -0.15200
F2407       F  0.70706594  0.47107377  0.95380735    -0.18700
F2408       F  0.79901215  0.40270798  0.87963745    -0.22100
F2409       F  0.79796368  0.39514448  0.94084306    -0.23500
F2410       F  0.81462814  0.42678229  0.92032650    -0.17500
F2411       F  0.73869930  0.32934744  0.82397843    -0.20000
F2412       F  0.77684334  0.33241395  0.82793010    -0.21200
F2413       F  0.75607785  0.36075688  0.80435909    -0.18400
F2414       F  0.74195045  0.36707738  0.00653116    -0.18400
F2415       F  0.72584681  0.39718324  0.97932224    -0.22300
F2416       F  0.76348372  0.39652714  0.98990942    -0.23900
C2417       C  0.72862952  0.41998876  0.62403998    -0.10700
C2418       C  0.74904904  0.41101285  0.63764013     0.11900
C2419       C  0.76732695  0.42574557  0.64590103    -0.02500
C2420       C  0.76445087  0.44919009  0.63994056    -0.05200
C2421       C  0.74410696  0.45807946  0.62564047    -0.16000
C2422       C  0.72552868  0.44337949  0.61905064     0.02900
C2423       C  0.75091830  0.38597171  0.64114648     0.12900
C2424       C  0.79002746  0.41665059  0.65935899     0.63500
H2425       H  0.77850356  0.46065853  0.64452424     0.12900
C2426       C  0.70217588  0.45141285  0.60684360     0.55600
H2427       H  0.71484062  0.40851633  0.61747996     0.08700
C2428       C  0.74119613  0.37395173  0.67104447    -0.05100
C2429       C  0.74252220  0.35012423  0.67116157    -0.05900
C2430       C  0.75309765  0.33789447  0.64237024    -0.15400
C2431       C  0.76311507  0.35022963  0.61249998    -0.01000
C2432       C  0.76152238  0.37405960  0.61246275    -0.08600
C2433       C  0.72930327  0.38626208  0.70252929     0.65700
H2434       H  0.73505632  0.34083797  0.69393984     0.11100
C2435       C  0.77516187  0.33874035  0.58028405     0.64100
H2436       H  0.76843114  0.38378367  0.58966774     0.08500
F2437       F  0.68574569  0.44035895  0.62731410    -0.19000
F2438       F  0.69905271  0.44633618  0.56972071    -0.15200
F2439       F  0.69898766  0.47440509  0.61203347    -0.18700
F2440       F  0.79990224  0.40374913  0.63177295    -0.22100
F2441       F  0.78705709  0.40333607  0.69052616    -0.23500
F2442       F  0.80485668  0.43394931  0.66849096    -0.17500
F2443       F  0.76061908  0.32373921  0.56283043    -0.20000
F2444       F  0.79415156  0.32733930  0.59317979    -0.21200
F2445       F  0.78239098  0.35415370  0.55388262    -0.18400
F2446       F  0.72207941  0.37146478  0.72984930    -0.18400
F2447       F  0.71050175  0.39767042  0.68904708    -0.22300
F2448       F  0.74391574  0.40167054  0.71874505    -0.23900
C2449       C  0.76763360  0.51173556  0.73322768    -0.10700
C2450       C  0.74995873  0.50155688  0.75311041     0.11900
C2451       C  0.73223997  0.49053431  0.73361476    -0.02500
C2452       C  0.73268533  0.49055988  0.69463073    -0.05200
C2453       C  0.75067101  0.50017478  0.67465441    -0.16000
C2454       C  0.76896560  0.51014854  0.69435590     0.02900
C2455       C  0.75102274  0.50175114  0.79434146     0.12900
C2456       C  0.71297682  0.47872482  0.75374255     0.63500
H2457       H  0.71876668  0.48320237  0.67918705     0.12900
C2458       C  0.79056987  0.51834257  0.67616576     0.55600
H2459       H  0.78114123  0.52007925  0.74844692     0.08700
C2460       C  0.76613522  0.48755151  0.81429908    -0.05100
C2461       C  0.76631562  0.48876333  0.85322862    -0.05900
C2462       C  0.75069611  0.50209350  0.87292240    -0.15400
C2463       C  0.73442331  0.51499913  0.85273006    -0.01000
C2464       C  0.73591507  0.51570113  0.81379999    -0.08600
C2465       C  0.78164015  0.47080591  0.79473646     0.65700
H2466       H  0.77888862  0.47934023  0.86873507     0.11100
C2467       C  0.71430410  0.52699216  0.87003762     0.64100
H2468       H  0.72425173  0.52634665  0.79824900     0.08500
F2469       F  0.80913165  0.50994953  0.69543193    -0.19000
F2470       F  0.79124600  0.54175584  0.67715056    -0.15200
F2471       F  0.79250071  0.51112798  0.63987796    -0.18700
F2472       F  0.69970686  0.49453400  0.77181381    -0.22100
F2473       F  0.72158511  0.46350662  0.77941504    -0.23500
F2474       F  0.69917235  0.46682351  0.72947846    -0.17500
F2475       F  0.69464437  0.52032320  0.85203065    -0.20000
F2476       F  0.71671692  0.55014894  0.86578187    -0.21200
F2477       F  0.71164936  0.52198471  0.90719833    -0.18400
F2478       F  0.79309346  0.45702446  0.81970529    -0.18400
F2479       F  0.79756041  0.48226717  0.77395491    -0.22300
F2480       F  0.76901437  0.45698725  0.77159190    -0.23900
C2481       C  0.73124685  0.62651730  0.62806041    -0.10700
C2482       C  0.75027764  0.61485937  0.64171159     0.11900
C2483       C  0.76915547  0.62725083  0.65517749    -0.02500
C2484       C  0.76822108  0.65108715  0.65443142    -0.05200
C2485       C  0.74923602  0.66272738  0.64050050    -0.16000
C2486       C  0.73032847  0.65030715  0.62703018     0.02900
C2487       C  0.75084625  0.58982299  0.63736493     0.12900
C2488       C  0.79024742  0.61540446  0.66997457     0.63500
H2489       H  0.78247365  0.66091775  0.66448470     0.12900
C2490       C  0.70912788  0.66086911  0.61013092     0.55600
H2491       H  0.71716233  0.61685066  0.61689073     0.08700
C2492       C  0.73845309  0.57488897  0.66038997    -0.05100
C2493       C  0.73847976  0.55155643  0.65193169    -0.05900
C2494       C  0.75116465  0.54276089  0.62225618    -0.15400
C2495       C  0.76470282  0.55776623  0.60079726    -0.01000
C2496       C  0.76336157  0.58108460  0.60776531    -0.08600
C2497       C  0.72504630  0.58358586  0.69332662     0.65700
H2498       H  0.72790687  0.54013970  0.66771872     0.11100
C2499       C  0.78118069  0.55055292  0.57066304     0.64100
H2500       H  0.77259455  0.59271997  0.59009097     0.08500
F2501       F  0.69063550  0.65542696  0.63185434    -0.19000
F2502       F  0.70574994  0.65209188  0.57493699    -0.15200
F2503       F  0.71016100  0.68416602  0.60693491    -0.18700
F2504       F  0.80105659  0.60400138  0.64160358    -0.22100
F2505       F  0.78436037  0.60009729  0.69732210    -0.23500
F2506       F  0.80553536  0.63061515  0.68514350    -0.17500
F2507       F  0.77305018  0.55779923  0.53660291    -0.20000
F2508       F  0.78488218  0.52746499  0.56931123    -0.21200
F2509       F  0.80198958  0.56067428  0.57705159    -0.18400
F2510       F  0.71563338  0.56604668  0.71359869    -0.18400
F2511       F  0.70764184  0.59749718  0.68122484    -0.22300
F2512       F  0.73911868  0.59573495  0.71672306    -0.23900
C2513       C  0.74931784  0.87582401  0.61412607    -0.10700
C2514       C  0.74707468  0.88542610  0.64950665     0.11900
C2515       C  0.74532315  0.87127197  0.68107791    -0.02500
C2516       C  0.74688747  0.84771971  0.67622916    -0.05200
C2517       C  0.74930948  0.83799068  0.64092633    -0.16000
C2518       C  0.75042744  0.85217224  0.60915269     0.02900
C2519       C  0.74678887  0.91043200  0.65301633     0.12900
C2520       C  0.74142122  0.88100887  0.71960964     0.63500
H2521       H  0.74574624  0.83658750  0.70006766     0.12900
C2522       C  0.75346753  0.84251810  0.57042220     0.55600
H2523       H  0.75027524  0.88709390  0.59044242     0.08700
C2524       C  0.76707090  0.92307137  0.65606004    -0.05100
C2525       C  0.76555677  0.94633689  0.66392953    -0.05900
C2526       C  0.74452327  0.95724657  0.66757719    -0.15400
C2527       C  0.72424843  0.94470804  0.66340683    -0.01000
C2528       C  0.72575611  0.92139970  0.65568319    -0.08600
C2529       C  0.79013725  0.91192953  0.65146165     0.65700
H2530       H  0.78083428  0.95623624  0.66777501     0.11100
C2531       C  0.70121367  0.95569416  0.66853574     0.64100
H2532       H  0.71051583  0.91132438  0.65284652     0.08500
F2533       F  0.75700650  0.85938097  0.54434784    -0.19000
F2534       F  0.73427395  0.83065542  0.56004812    -0.15200
F2535       F  0.77203186  0.82814728  0.56985480    -0.18700
F2536       F  0.72070569  0.89200490  0.72053048    -0.22100
F2537       F  0.75834716  0.89625160  0.72853217    -0.23500
F2538       F  0.74127817  0.86429924  0.74659571    -0.17500
F2539       F  0.69769073  0.97154234  0.64095135    -0.20000
F2540       F  0.70020139  0.96619429  0.70281061    -0.21200
F2541       F  0.68380221  0.94003172  0.66664754    -0.18400
F2542       F  0.80765515  0.92728954  0.65585895    -0.18400
F2543       F  0.79178089  0.90270159  0.61632113    -0.22300
F2544       F  0.79298234  0.89493085  0.67749628    -0.23900
C2545       C  0.76950332  0.57782515  0.89118759    -0.10700
C2546       C  0.75335866  0.59167156  0.90859115     0.11900
C2547       C  0.73786848  0.58197298  0.93390005    -0.02500
C2548       C  0.73946763  0.55866434  0.94153462    -0.05200
C2549       C  0.75584451  0.54478661  0.92462376    -0.16000
C2550       C  0.77172228  0.55466678  0.89997593     0.02900
C2551       C  0.75402388  0.61653979  0.90193315     0.12900
C2552       C  0.71975137  0.59618965  0.95278795     0.63500
H2553       H  0.72772213  0.55094264  0.96078579     0.12900
C2554       C  0.79213948  0.54233886  0.88420998     0.55600
H2555       H  0.78135125  0.58550808  0.87201305     0.08700
C2556       C  0.76982771  0.63065418  0.92050539    -0.05100
C2557       C  0.76847428  0.65422094  0.91511322    -0.05900
C2558       C  0.75189214  0.66397565  0.89211826    -0.15400
C2559       C  0.73646334  0.64984955  0.87267900    -0.01000
C2560       C  0.73793378  0.62624866  0.87787806    -0.08600
C2561       C  0.78778710  0.62092267  0.94640547     0.65700
H2562       H  0.78019459  0.66536345  0.92938962     0.11100
C2563       C  0.71814444  0.65850556  0.84647452     0.64100
H2564       H  0.72612473  0.61525189  0.86343413     0.08500
F2565       F  0.81150083  0.55482854  0.89144481    -0.19000
F2566       F  0.78958329  0.54024511  0.84620437    -0.15200
F2567       F  0.79542755  0.52108534  0.89937796    -0.18700
F2568       F  0.70498319  0.60486803  0.92646413    -0.22100
F2569       F  0.72967235  0.61389058  0.97197647    -0.23500
F2570       F  0.70720249  0.58359393  0.97776112    -0.17500
F2571       F  0.72074611  0.64834890  0.81215105    -0.20000
F2572       F  0.71865171  0.68170645  0.84133550    -0.21200
F2573       F  0.69711370  0.65275329  0.86044120    -0.18400
F2574       F  0.80062265  0.63775699  0.96299064    -0.18400
F2575       F  0.80233784  0.60707313  0.92673411    -0.22300
F2576       F  0.77762639  0.60844194  0.97421705    -0.23900
C2577       C  0.76240029  0.87582458  0.86368148    -0.10700
C2578       C  0.75248423  0.88723263  0.89370058     0.11900
C2579       C  0.74335744  0.87462404  0.92361060    -0.02500
C2580       C  0.74536529  0.85080971  0.92300833    -0.05200
C2581       C  0.75471195  0.83944528  0.89245950    -0.16000
C2582       C  0.76327853  0.85202955  0.86216423     0.02900
C2583       C  0.74905112  0.91207004  0.88976186     0.12900
C2584       C  0.73066687  0.88614455  0.95504717     0.63500
H2585       H  0.73865756  0.84076798  0.94560261     0.12900
C2586       C  0.77298905  0.84033129  0.82819356     0.55600
H2587       H  0.76855803  0.88579502  0.84057629     0.08700
C2588       C  0.76617833  0.92807015  0.89819508    -0.05100
C2589       C  0.76244313  0.95099847  0.88891207    -0.05900
C2590       C  0.74261384  0.95806700  0.87046385    -0.15400
C2591       C  0.72521084  0.94208622  0.86306603    -0.01000
C2592       C  0.72885953  0.91930736  0.87284817    -0.08600
C2593       C  0.78864191  0.92082142  0.91529439     0.65700
H2594       H  0.77548840  0.96346688  0.89435522     0.11100
C2595       C  0.70282933  0.94875733  0.84495334     0.64100
H2596       H  0.71621649  0.90665372  0.86607911     0.08500
F2597       F  0.78206823  0.85567324  0.80328443    -0.19000
F2598       F  0.75606609  0.82843976  0.81008600    -0.15200
F2599       F  0.79000463  0.82547454  0.83880198    -0.18700
F2600       F  0.71208056  0.89768449  0.94105758    -0.22100
F2601       F  0.74465413  0.90131569  0.97312515    -0.23500
F2602       F  0.72293600  0.87066352  0.98093773    -0.17500
F2603       F  0.70602943  0.95333670  0.80776773    -0.20000
F2604       F  0.69390887  0.96768874  0.86216313    -0.21200
F2605       F  0.68695792  0.93157022  0.84752295    -0.18400
F2606       F  0.80251894  0.93919768  0.92260234    -0.18400
F2607       F  0.79993586  0.90652671  0.89123092    -0.22300
F2608       F  0.78502532  0.90956207  0.94833914    -0.23900
C2609       C  0.62755414  0.74822769  0.86649394    -0.10700
C2610       C  0.61757411  0.75673572  0.89889798     0.11900
C2611       C  0.63143737  0.76571043  0.92753970    -0.02500
C2612       C  0.65510300  0.76520463  0.92313148    -0.05200
C2613       C  0.66506692  0.75635943  0.89100624    -0.16000
C2614       C  0.65123845  0.74807801  0.86187563     0.02900
C2615       C  0.59288312  0.75338940  0.90416586     0.12900
C2616       C  0.62125127  0.77546473  0.96275746     0.63500
H2617       H  0.66609979  0.77146119  0.94498327     0.12900
C2618       C  0.66157987  0.73836578  0.82682496     0.55600
H2619       H  0.61662461  0.74108787  0.84530872     0.08700
C2620       C  0.57630049  0.76783097  0.88832344    -0.05100
C2621       C  0.55331524  0.76385324  0.89651903    -0.05900
C2622       C  0.54664394  0.74602423  0.91992315    -0.15400
C2623       C  0.56339981  0.73116158  0.93486832    -0.01000
C2624       C  0.58618658  0.73508539  0.92619991    -0.08600
C2625       C  0.58290777  0.78743689  0.86335852     0.65700
H2626       H  0.54038850  0.77516014  0.88570435     0.11100
C2627       C  0.55874864  0.71101872  0.96012992     0.64100
H2628       H  0.59914045  0.72393993  0.93755276     0.08500
F2629       F  0.64519590  0.73022553  0.80267728    -0.19000
F2630       F  0.67601596  0.72066820  0.83584871    -0.15200
F2631       F  0.67367983  0.75502358  0.80862761    -0.18700
F2632       F  0.60924105  0.75893252  0.98119829    -0.22100
F2633       F  0.60673398  0.79310473  0.95402680    -0.23500
F2634       F  0.63772719  0.78365633  0.98670447    -0.17500
F2635       F  0.56980422  0.69207336  0.94651468    -0.20000
F2636       F  0.53610242  0.70556650  0.96312644    -0.21200
F2637       F  0.56711368  0.71568896  0.99522299    -0.18400
F2638       F  0.56427691  0.80031992  0.85297838    -0.18400
F2639       F  0.59296976  0.77918801  0.83153108    -0.22300
F2640       F  0.59803920  0.80147389  0.88154057    -0.23900
C2641       C  0.58245935  0.77592235  0.62050528    -0.10700
C2642       C  0.59144732  0.75501985  0.63175851     0.11900
C2643       C  0.57685382  0.73647642  0.63827667    -0.02500
C2644       C  0.55359840  0.73910406  0.63057741    -0.05200
C2645       C  0.54477362  0.75962980  0.61701404    -0.16000
C2646       C  0.55925198  0.77860570  0.61272338     0.02900
C2647       C  0.61642489  0.75288725  0.63419207     0.12900
C2648       C  0.58583610  0.71418251  0.65352361     0.63500
H2649       H  0.54213101  0.72499278  0.63443734     0.12900
C2650       C  0.55053409  0.80154484  0.59969403     0.55600
H2651       H  0.59403799  0.78991272  0.61629117     0.08700
C2652       C  0.62960741  0.74846943  0.60226396    -0.05100
C2653       C  0.65330348  0.74774956  0.60582874    -0.05900
C2654       C  0.66406247  0.75143621  0.64003734    -0.15400
C2655       C  0.65087678  0.75614128  0.67198670    -0.01000
C2656       C  0.62709028  0.75674179  0.66842502    -0.08600
C2657       C  0.61869708  0.74514417  0.56441700     0.65700
H2658       H  0.66372785  0.74443606  0.58173795     0.11100
C2659       C  0.66182882  0.76140850  0.70920275     0.64100
H2660       H  0.61657402  0.76048402  0.69223279     0.08500
F2661       F  0.54573935  0.80078556  0.56216921    -0.19000
F2662       F  0.56642678  0.81843494  0.60543075    -0.15200
F2663       F  0.53114501  0.80748527  0.61885414    -0.18700
F2664       F  0.59479775  0.71766667  0.68856494    -0.22100
F2665       F  0.60260819  0.70563075  0.63076594    -0.23500
F2666       F  0.56891756  0.69804101  0.65622254    -0.17500
F2667       F  0.64600211  0.76821331  0.73522575    -0.20000
F2668       F  0.67740719  0.77872334  0.70512836    -0.21200
F2669       F  0.67270454  0.74233366  0.72276561    -0.18400
F2670       F  0.63463200  0.74023386  0.53746273    -0.18400
F2671       F  0.60741649  0.76472961  0.55414262    -0.22300
F2672       F  0.60340463  0.72745113  0.56549905    -0.23900
C2673       C  0.49569540  0.73336659  0.72855841    -0.10700
C2674       C  0.50647114  0.75055772  0.74881272     0.11900
C2675       C  0.51862851  0.76755634  0.72972928    -0.02500
C2676       C  0.51650586  0.76871916  0.69086055    -0.05200
C2677       C  0.50510700  0.75188977  0.67036961    -0.16000
C2678       C  0.49616084  0.73293642  0.68957004     0.02900
C2679       C  0.50553288  0.74956379  0.78994558     0.12900
C2680       C  0.53489843  0.78331765  0.74995284     0.63500
H2681       H  0.52414169  0.78263625  0.67602359     0.12900
C2682       C  0.48842947  0.71134821  0.67079524     0.55600
H2683       H  0.48768658  0.71958374  0.74347069     0.08700
C2684       C  0.49006625  0.76288487  0.81048264    -0.05100
C2685       C  0.49081727  0.76173591  0.84949180    -0.05900
C2686       C  0.50390152  0.74530946  0.86819733    -0.15400
C2687       C  0.51649374  0.72950514  0.84673038    -0.01000
C2688       C  0.51851862  0.73308504  0.80831189    -0.08600
C2689       C  0.47160232  0.77663370  0.79126457     0.65700
H2690       H  0.48060256  0.77326506  0.86560669     0.11100
C2691       C  0.52615967  0.70758262  0.86197437     0.64100
H2692       H  0.52905932  0.72179861  0.79201415     0.08500
F2693       F  0.46518207  0.70924837  0.67414770    -0.19000
F2694       F  0.49869052  0.69295669  0.68789222    -0.15200
F2695       F  0.49427273  0.71061646  0.63380095    -0.18700
F2696       F  0.55138543  0.77054440  0.76769681    -0.22100
F2697       F  0.52368395  0.79616435  0.77611585    -0.23500
F2698       F  0.54563077  0.79798718  0.72571856    -0.17500
F2699       F  0.51992401  0.68981206  0.83907194    -0.20000
F2700       F  0.51805288  0.70266590  0.89690518    -0.21200
F2701       F  0.54956311  0.70875700  0.86292077    -0.18400
F2702       F  0.45759997  0.78736429  0.81653462    -0.18400
F2703       F  0.45837851  0.76226558  0.77000282    -0.22300
F2704       F  0.48080412  0.79296321  0.76843671    -0.23900
C2705       C  0.37879272  0.73409958  0.66688715    -0.10700
C2706       C  0.38858282  0.74902889  0.64128632     0.11900
C2707       C  0.37446402  0.76260136  0.61835311    -0.02500
C2708       C  0.35082629  0.76127640  0.62285962    -0.05200
C2709       C  0.34102811  0.74643179  0.64857620    -0.16000
C2710       C  0.35513672  0.73245685  0.67095842     0.02900
C2711       C  0.41361115  0.74893784  0.63705839     0.12900
C2712       C  0.38430136  0.77797404  0.58864741     0.63500
H2713       H  0.33968749  0.77154628  0.60571931     0.12900
C2714       C  0.34642963  0.71534969  0.69897004     0.55600
H2715       H  0.38978726  0.72337405  0.68357315     0.08700
C2716       C  0.42814667  0.76212414  0.65970028    -0.05100
C2717       C  0.45145941  0.76281936  0.65121931    -0.05900
C2718       C  0.46048722  0.75036407  0.62150211    -0.15400
C2719       C  0.44601451  0.73569749  0.60084141    -0.09800
C2720       C  0.42277658  0.73554976  0.60886044    -0.08600
C2721       C  0.41893361  0.77563413  0.69215073     0.65700
H2722       H  0.46262929  0.77387047  0.66676223     0.11100
C2723       C  0.45371684  0.71992568  0.56991366     0.64100
H2724       H  0.41147395  0.72504324  0.59244372     0.08500
F2725       F  0.35537326  0.72029232  0.73358098    -0.19000
F2726       F  0.35352317  0.69390050  0.68868244    -0.15200
F2727       F  0.32307641  0.71509183  0.70191634    -0.18700
F2728       F  0.39540478  0.76508933  0.56233746    -0.22100
F2729       F  0.39949534  0.79300470  0.60435005    -0.23500
F2730       F  0.36762848  0.79043012  0.57066878    -0.17500
F2731       F  0.44519750  0.69843678  0.57624511    -0.20000
F2732       F  0.47696633  0.71786633  0.56718176    -0.21200
F2733       F  0.44527247  0.72776254  0.53639148    -0.18400
F2734       F  0.43580531  0.78779533  0.70998504    -0.18400
F2735       F  0.40931917  0.76106713  0.71766806    -0.22300
F2736       F  0.40261691  0.79078066  0.67992921    -0.23900
C2737       C  0.26323645  0.87200211  0.62729769    -0.10700
C2738       C  0.25361164  0.88220773  0.65868228     0.11900
C2739       C  0.24456769  0.86848059  0.68731371    -0.02500
C2740       C  0.24562503  0.84476784  0.68350627    -0.05200
C2741       C  0.25513342  0.83456198  0.65205400    -0.16000
C2742       C  0.26438123  0.84825743  0.62363546     0.02900
C2743       C  0.25353161  0.90734676  0.66117712     0.12900
C2744       C  0.23373063  0.87882916  0.72158826     0.63500
H2745       H  0.23875058  0.83391771  0.70493669     0.12900
C2746       C  0.27608241  0.83778745  0.59035823     0.55600
H2747       H  0.27003919  0.88285752  0.60582014     0.08700
C2748       C  0.27230212  0.91942300  0.67549751    -0.05100
C2749       C  0.27022447  0.94294849  0.68058848    -0.05900
C2750       C  0.25065382  0.95489908  0.66968905    -0.15400
C2751       C  0.23199086  0.94280625  0.65462046    -0.01000
C2752       C  0.23396978  0.91917959  0.65013285    -0.08600
C2753       C  0.29452256  0.90755372  0.68475542     0.65700
H2754       H  0.28403873  0.95230949  0.69313166     0.11100
C2755       C  0.20927010  0.95338742  0.64462480     0.64100
H2756       H  0.21974421  0.90969548  0.63903306     0.08500
F2757       F  0.28575392  0.85407329  0.56775154    -0.19000
F2758       F  0.26057583  0.82570717  0.56943703    -0.15200
F2759       F  0.29312800  0.82333721  0.60230988    -0.18700
F2760       F  0.21498969  0.89151451  0.71134860    -0.22100
F2761       F  0.24905198  0.89268595  0.73970008    -0.23500
F2762       F  0.22670290  0.86240546  0.74645876    -0.17500
F2763       F  0.20534306  0.95062648  0.60703802    -0.20000
F2764       F  0.20786322  0.97619175  0.65278612    -0.21200
F2765       F  0.19230106  0.94247016  0.66406713    -0.18400
F2766       F  0.31037216  0.92237382  0.69939646    -0.18400
F2767       F  0.30351050  0.89823264  0.65283431    -0.22300
F2768       F  0.29102027  0.89050506  0.71039813    -0.23900
C2769       C  0.37900111  0.75170639  0.87185172    -0.10700
C2770       C  0.38976151  0.74379558  0.90401750     0.11900
C2771       C  0.37664553  0.73626390  0.93435729    -0.02500
C2772       C  0.35287409  0.73649714  0.93104152    -0.05200
C2773       C  0.34177638  0.74460347  0.89892783    -0.16000
C2774       C  0.35518560  0.75233654  0.86853042     0.02900
C2775       C  0.41483563  0.74519370  0.90630110     0.12900
C2776       C  0.38774038  0.72862384  0.97048244     0.63500
H2777       H  0.34273173  0.73087133  0.95424114     0.12900
C2778       C  0.34484615  0.76117321  0.83255646     0.55600
H2779       H  0.38958832  0.75779897  0.84948762     0.08700
C2780       C  0.42919471  0.72758710  0.89364673    -0.05100
C2781       C  0.45261625  0.72906200  0.90109588    -0.05900
C2782       C  0.46179263  0.74779465  0.91974904    -0.15400
C2783       C  0.44765833  0.76644546  0.92884101    -0.01000
C2784       C  0.42426268  0.76468817  0.92214673    -0.08600
C2785       C  0.41976355  0.70750230  0.87235460     0.65700
H2786       H  0.46387222  0.71534805  0.89332247     0.11100
C2787       C  0.45704699  0.78813741  0.94561065     0.64100
H2788       H  0.41296825  0.77826835  0.93042253     0.08500
F2789       F  0.36116681  0.76542709  0.80592586    -0.19000
F2790       F  0.33348050  0.78129852  0.83912335    -0.15200
F2791       F  0.33001756  0.74532114  0.81803683    -0.18700
F2792       F  0.39938964  0.74651004  0.98626833    -0.22100
F2793       F  0.40276523  0.71109863  0.96385644    -0.23500
F2794       F  0.37194400  0.72107731  0.99595690    -0.17500
F2795       F  0.44152580  0.80572617  0.94316650    -0.20000
F2796       F  0.47641635  0.79478186  0.92705578    -0.21200
F2797       F  0.46217185  0.78478435  0.98264293    -0.18400
F2798       F  0.43662615  0.69225983  0.86274902    -0.18400
F2799       F  0.40947740  0.71504392  0.84006598    -0.22300
F2800       F  0.40393451  0.69617021  0.89354463    -0.23900
C2801       C  0.27002736  0.86971898  0.88367483    -0.10700
C2802       C  0.25043370  0.88068366  0.89617915     0.11900
C2803       C  0.23233754  0.86784483  0.91077192    -0.02500
C2804       C  0.23429782  0.84409021  0.91134872    -0.05200
C2805       C  0.25368019  0.83282555  0.89782475    -0.16000
C2806       C  0.27219098  0.84598038  0.88441386     0.02900
C2807       C  0.24908703  0.90558885  0.89122820     0.12900
C2808       C  0.21117478  0.87921309  0.92594795     0.63500
H2809       H  0.22031608  0.83409708  0.92172794     0.12900
C2810       C  0.29428808  0.83545237  0.87112624     0.55600
H2811       H  0.28355102  0.88008092  0.87259825     0.08700
C2812       C  0.26251718  0.92103975  0.91189195    -0.05100
C2813       C  0.26311924  0.94385621  0.90064829    -0.05900
C2814       C  0.25000642  0.95180377  0.87073973    -0.15400
C2815       C  0.23563888  0.93647383  0.85134560    -0.01000
C2816       C  0.23611564  0.91352956  0.86130312    -0.08600
C2817       C  0.27696021  0.91435694  0.94511718     0.65700
H2818       H  0.27423567  0.95553170  0.91511112     0.11100
C2819       C  0.21920775  0.94292122  0.82035757     0.64100
H2820       H  0.22629655  0.90151059  0.84513446     0.08500
F2821       F  0.31074394  0.85165772  0.86454314    -0.19000
F2822       F  0.29064848  0.82388227  0.83827688    -0.15200
F2823       F  0.30273613  0.82077879  0.89780227    -0.18700
F2824       F  0.19947946  0.88997295  0.89765257    -0.22100
F2825       F  0.21720888  0.89500211  0.95254337    -0.23500
F2826       F  0.19664722  0.86375102  0.94222767    -0.17500
F2827       F  0.22591395  0.93254510  0.78777546    -0.20000
F2828       F  0.21751841  0.96593655  0.81409326    -0.21200
F2829       F  0.19775830  0.93527767  0.82941736    -0.18400
F2830       F  0.27276403  0.92911865  0.97413374    -0.18400
F2831       F  0.29960857  0.91581812  0.93562261    -0.22300
F2832       F  0.27262682  0.89265959  0.95765178    -0.23900
C2833       C  0.08052401  0.77751413  0.65664794    -0.10700
C2834       C  0.09260764  0.75701523  0.65630038     0.11900
C2835       C  0.08080198  0.73623950  0.65953255    -0.02500
C2836       C  0.05702777  0.73671874  0.66245377    -0.05200
C2837       C  0.04488971  0.75719107  0.66253509    -0.16000
C2838       C  0.05672893  0.77796001  0.65999475     0.02900
C2839       C  0.11776345  0.75771962  0.65438867     0.12900
C2840       C  0.09336984  0.71374636  0.66127093     0.63500
H2841       H  0.04769358  0.72108335  0.66602855     0.12900
C2842       C  0.04426964  0.80042835  0.66149678     0.55600
H2843       H  0.08997584  0.79318541  0.65480438     0.08700
C2844       C  0.12944217  0.75860732  0.62021984    -0.05100
C2845       C  0.15326530  0.75667653  0.62048865    -0.05900
C2846       C  0.16560267  0.75447174  0.65380602    -0.15400
C2847       C  0.15389308  0.75563379  0.68817738    -0.01000
C2848       C  0.13005436  0.75700299  0.68773733    -0.08600
C2849       C  0.11673175  0.76183970  0.58383088     0.65700
H2850       H  0.16245372  0.75660290  0.59452734     0.11100
C2851       C  0.16637042  0.75621017  0.72517901     0.64100
H2852       H  0.12069270  0.75709649  0.71354938     0.08500
F2853       F  0.03026192  0.80233449  0.63086424    -0.19000
F2854       F  0.05905121  0.81861614  0.66141924    -0.15200
F2855       F  0.03138272  0.80169530  0.69342851    -0.18700
F2856       F  0.10694472  0.71308895  0.69263362    -0.22100
F2857       F  0.10681302  0.71112512  0.63023339    -0.23500
F2858       F  0.07861668  0.69555720  0.66277833    -0.17500
F2859       F  0.15196167  0.76145194  0.75421300    -0.20000
F2860       F  0.18316726  0.77254094  0.72424870    -0.21200
F2861       F  0.17599631  0.73529800  0.73251322    -0.18400
F2862       F  0.13124052  0.76192484  0.55372546    -0.18400
F2863       F  0.10533658  0.78234007  0.58438859    -0.22300
F2864       F  0.10120739  0.74459067  0.57875472    -0.23900
C2865       C  0.87549614  0.74324431  0.67344723    -0.10700
C2866       C  0.88728917  0.75203397  0.64290291     0.11900
C2867       C  0.87518954  0.75854843  0.61057767    -0.02500
C2868       C  0.85130411  0.75751513  0.61096301    -0.05200
C2869       C  0.83951594  0.74978268  0.64225434    -0.16000
C2870       C  0.85169041  0.74187883  0.67360130     0.02900
C2871       C  0.91235021  0.75399273  0.64605383     0.12900
C2872       C  0.88747354  0.76621867  0.57583643     0.63500
H2873       H  0.84159896  0.76285121  0.58689558     0.12900
C2874       C  0.83951810  0.73142322  0.70645215     0.55600
H2875       H  0.88517527  0.73766457  0.69740224     0.08700
C2876       C  0.92261331  0.77177567  0.66634229    -0.05100
C2877       C  0.94612220  0.77094350  0.67267141    -0.05900
C2878       C  0.95975638  0.75340119  0.65860943    -0.15400
C2879       C  0.94944653  0.73561682  0.63814676    -0.01000
C2880       C  0.92586728  0.73646585  0.63183013    -0.08600
C2881       C  0.90883636  0.79158128  0.68121576     0.65700
H2882       H  0.95413864  0.78402321  0.68918127     0.11100
C2883       C  0.96187703  0.71484720  0.62393380     0.64100
H2884       H  0.91771357  0.72271384  0.61698631     0.08500
F2885       F  0.82552870  0.74732634  0.72281114    -0.19000
F2886       F  0.85456793  0.72354327  0.73311581    -0.15200
F2887       F  0.82654312  0.71332101  0.69448093    -0.18700
F2888       F  0.90058922  0.74863111  0.56236746    -0.22100
F2889       F  0.90134206  0.78444283  0.58375512    -0.23500
F2890       F  0.87246854  0.77273594  0.54815420    -0.17500
F2891       F  0.95084536  0.69551796  0.63590993    -0.20000
F2892       F  0.98408410  0.71343726  0.63596275    -0.21200
F2893       F  0.96164527  0.71518386  0.58559893    -0.18400
F2894       F  0.92237968  0.80735027  0.69907473    -0.18400
F2895       F  0.89291439  0.78399879  0.70632584    -0.22300
F2896       F  0.89785060  0.80244283  0.65227024    -0.23900
C2897       C  0.12729229  0.76373978  0.90361728    -0.10700
C2898       C  0.11699390  0.74795608  0.88008319     0.11900
C2899       C  0.13049886  0.73197398  0.86107339    -0.02500
C2900       C  0.15402924  0.73166723  0.86778275    -0.05200
C2901       C  0.16471570  0.74738602  0.89163839    -0.16000
C2902       C  0.15094321  0.76405662  0.90960461     0.02900
C2903       C  0.09207263  0.74949880  0.87425750     0.12900
C2904       C  0.12012838  0.71571872  0.83304428     0.63500
H2905       H  0.16431939  0.71922940  0.85357453     0.12900
C2906       C  0.16069028  0.78253201  0.93438023     0.55600
H2907       H  0.11645468  0.77610637  0.91695614     0.08700
C2908       C  0.07637305  0.73900320  0.89835928    -0.05100
C2909       C  0.05307116  0.74028163  0.88971683    -0.05900
C2910       C  0.04509481  0.75278745  0.85911527    -0.15400
C2911       C  0.06090066  0.76477228  0.83669256    -0.01000
C2912       C  0.08414720  0.76237915  0.84428230    -0.08600
C2913       C  0.08425637  0.72677333  0.93317385     0.65700
H2914       H  0.04092681  0.73124215  0.90657645     0.11100
C2915       C  0.05461065  0.78073745  0.80503584     0.64100
H2916       H  0.09636323  0.77096473  0.82680447     0.08500
F2917       F  0.14409929  0.79717303  0.94722519    -0.19000
F2918       F  0.17614301  0.79534757  0.91465873    -0.15200
F2919       F  0.17112002  0.77290989  0.96504261    -0.18700
F2920       F  0.11084428  0.72784084  0.80382683    -0.22100
F2921       F  0.10329824  0.70300967  0.84957842    -0.23500
F2922       F  0.13607996  0.70090906  0.81868973    -0.17500
F2923       F  0.06523190  0.80135938  0.81056852    -0.20000
F2924       F  0.03165661  0.78504148  0.80204751    -0.21200
F2925       F  0.06209736  0.77165552  0.77188125    -0.18400
F2926       F  0.06636266  0.71694539  0.95194360    -0.18400
F2927       F  0.09466322  0.74203626  0.95680092    -0.22300
F2928       F  0.09952683  0.70986289  0.92421703    -0.23900
C2929       C  0.92479536  0.77154140  0.87889776    -0.10700
C2930       C  0.91285212  0.75107539  0.87688905     0.11900
C2931       C  0.92440411  0.73082633  0.86767612    -0.02500
C2932       C  0.94787081  0.73177205  0.86131706    -0.05200
C2933       C  0.95990241  0.75226932  0.86297304    -0.16000
C2934       C  0.94822367  0.77259929  0.87174543     0.02900
C2935       C  0.88785687  0.75179126  0.88083692     0.12900
C2936       C  0.91184957  0.70852299  0.86308123     0.63500
H2937       H  0.95700862  0.71652352  0.85376358     0.12900
C2938       C  0.96001223  0.79542386  0.87246177     0.55600
H2939       H  0.91541372  0.78682806  0.88537885     0.08700
C2940       C  0.87699861  0.75098063  0.91574631    -0.05100
C2941       C  0.85311616  0.75093889  0.91671779    -0.05900
C2942       C  0.84007215  0.75195602  0.88401671    -0.15400
C2943       C  0.85109239  0.75400751  0.84922523    -0.01000
C2944       C  0.87489992  0.75382000  0.84835884    -0.08600
C2945       C  0.89059482  0.75049713  0.95163789     0.65700
H2946       H  0.84440667  0.74994704  0.94307314     0.11100
C2947       C  0.83794819  0.75701319  0.81318154     0.64100
H2948       H  0.88372165  0.75500127  0.82211010     0.08500
F2949       F  0.97347207  0.79690215  0.90372801    -0.19000
F2950       F  0.94460127  0.81315072  0.87349042    -0.15200
F2951       F  0.97320999  0.79816833  0.84114816    -0.18700
F2952       F  0.89683390  0.71007815  0.83361826    -0.22100
F2953       F  0.89992841  0.70348425  0.89495587    -0.23500
F2954       F  0.92653583  0.69070012  0.85612393    -0.17500
F2955       F  0.85207473  0.76274646  0.78406396    -0.20000
F2956       F  0.82209889  0.77417870  0.81693476    -0.21200
F2957       F  0.82705430  0.73704315  0.80407566    -0.18400
F2958       F  0.87670605  0.74896253  0.98240936    -0.18400
F2959       F  0.90319641  0.77013510  0.95471295    -0.22300
F2960       F  0.90512435  0.73209195  0.95200991    -0.23900
C2961       C  0.01674554  0.77547015  0.96883989    -0.10700
C2962       C  0.00387686  0.76018358  0.98976824     0.11900
C2963       C  0.98935230  0.74473904  0.97151869    -0.02500
C2964       C  0.99029611  0.74329297  0.93273661    -0.05200
C2965       C  0.00298019  0.75861288  0.91140308    -0.16000
C2966       C  0.01562198  0.77577771  0.92982709     0.02900
C2967       C  0.00421985  0.75719296  0.53036998     0.12900
C2968       C  0.97233835  0.73047515  0.99273709     0.63500
H2969       H  0.98089718  0.73014866  0.91863987     0.12900
C2970       C  0.02697544  0.79546274  0.91031123     0.55600
H2971       H  0.02703061  0.78791813  0.98322963     0.08700
C2972       C  0.01846472  0.74246014  0.55083301    -0.05100
C2973       C  0.01688230  0.74244926  0.58972023    -0.05900
C2974       C  0.00339994  0.75825173  0.60876921    -0.15400
C2975       C  0.99130562  0.77487908  0.58803054    -0.01000
C2976       C  0.99101068  0.77326035  0.54908405    -0.08600
C2977       C  0.03603489  0.72774068  0.53168772     0.65700
H2978       H  0.02629779  0.73007742  0.60567133     0.11100
C2979       C  0.97965005  0.79531921  0.60490709     0.64100
H2980       H  0.98098221  0.78519089  0.53298136     0.08500
F2981       F  0.05025868  0.79343040  0.91372552    -0.19000
F2982       F  0.02027002  0.81556313  0.92676268    -0.15200
F2983       F  0.02126074  0.79685973  0.87321794    -0.18700
F2984       F  0.95680950  0.74163267  0.51069105    -0.22100
F2985       F  0.98158958  0.71272729  0.51602085    -0.23500
F2986       F  0.95886047  0.71771282  0.96916455    -0.17500
F2987       F  0.98704989  0.81474591  0.58720015    -0.20000
F2988       F  0.98431507  0.79788640  0.64224047    -0.21200
F2989       F  0.95647165  0.79350828  0.59980336    -0.18400
F2990       F  0.04839904  0.71489613  0.55681797    -0.18400
F2991       F  0.05097803  0.74152274  0.51273825    -0.22300
F2992       F  0.02580975  0.71314354  0.50680953    -0.23900
C2993       C  0.23574314  0.41542728  0.92240505    -0.10700
C2994       C  0.25484316  0.40476617  0.90732370     0.11900
C2995       C  0.27441433  0.41765953  0.89903679    -0.02500
C2996       C  0.27449928  0.44089635  0.90781674    -0.05200
C2997       C  0.25588568  0.45122432  0.92503033    -0.16000
C2998       C  0.23599358  0.43848645  0.93207654     0.02900
C2999       C  0.25403191  0.37984616  0.90204536     0.12900
C3000       C  0.29518760  0.40680622  0.88168310     0.63500
H3001       H  0.28931515  0.45112807  0.90213257     0.12900
C3002       C  0.21518090  0.44901380  0.95000828     0.55600
H3003       H  0.22087346  0.40522513  0.92784821     0.08700
C3004       C  0.25719154  0.36473034  0.93219152    -0.05100
C3005       C  0.25590561  0.34131401  0.92547421    -0.05900
C3006       C  0.25160861  0.33269864  0.88984629    -0.15400
C3007       C  0.24813993  0.34782443  0.85977173    -0.01000
C3008       C  0.24927801  0.37130190  0.86653908    -0.08600
C3009       C  0.26158628  0.37330810  0.97135374     0.65700
H3010       H  0.25822325  0.32944592  0.94814023     0.11100
C3011       C  0.24258278  0.33924709  0.82107969     0.64100
H3012       H  0.24647542  0.38325190  0.84414281     0.08500
F3013       F  0.21987210  0.45423412  0.98659534    -0.19000
F3014       F  0.19684855  0.43439188  0.94944014    -0.15200
F3015       F  0.20887576  0.46855831  0.93143702    -0.18700
F3016       F  0.28962296  0.39797102  0.84732899    -0.22100
F3017       F  0.30320004  0.38956807  0.90423380    -0.23500
F3018       F  0.31252886  0.42228730  0.87677648    -0.17500
F3019       F  0.22420548  0.32474002  0.82252438    -0.20000
F3020       F  0.26106165  0.32781981  0.80673500    -0.21200
F3021       F  0.23717720  0.35678952  0.79705717    -0.18400
F3022       F  0.26624237  0.35576439  0.99576744    -0.18400
F3023       F  0.24269359  0.38473334  0.98416238    -0.22300
F3024       F  0.27994094  0.38783985  0.97165762    -0.23900
C3025       C  0.23526628  0.57037995  0.90916337    -0.10700
C3026       C  0.25523956  0.58323742  0.90734317     0.11900
C3027       C  0.27652591  0.57224956  0.91104086    -0.02500
C3028       C  0.27698247  0.54886006  0.91837360    -0.05200
C3029       C  0.25713316  0.53586891  0.91920012    -0.16000
C3030       C  0.23585868  0.54672238  0.91466151     0.02900
C3031       C  0.25344946  0.60839802  0.90545914     0.12900
C3032       C  0.29870823  0.58515473  0.90759533     0.63500
H3033       H  0.29295476  0.54068376  0.92473049     0.12900
C3034       C  0.21389928  0.53349526  0.91760461     0.55600
H3035       H  0.21915705  0.57916708  0.90747795     0.08700
C3036       C  0.24785812  0.62018014  0.87245511    -0.05100
C3037       C  0.24765897  0.64408640  0.87299705    -0.05900
C3038       C  0.25339478  0.65649924  0.90510725    -0.15400
C3039       C  0.25894790  0.64444338  0.93826349    -0.01000
C3040       C  0.25811217  0.62061573  0.93788867    -0.08600
C3041       C  0.24240552  0.60754739  0.83680403     0.65700
H3042       H  0.24343533  0.65329728  0.84789839     0.11100
C3043       C  0.26589281  0.65627813  0.97406129     0.64100
H3044       H  0.26186951  0.61109773  0.96289421     0.08500
F3045       F  0.19509227  0.54717518  0.91198159    -0.19000
F3046       F  0.21220417  0.52388012  0.95249866    -0.15200
F3047       F  0.21352162  0.51655138  0.89118066    -0.18700
F3048       F  0.30139026  0.59976597  0.93721469    -0.22100
F3049       F  0.29877269  0.59746981  0.87493080    -0.23500
F3050       F  0.31722248  0.57068412  0.90706198    -0.17500
F3051       F  0.24952661  0.67191719  0.98412570    -0.20000
F3052       F  0.28648422  0.66704388  0.96922757    -0.21200
F3053       F  0.26853678  0.64119387  0.00320892    -0.18400
F3054       F  0.23898199  0.62219828  0.80727185    -0.18400
F3055       F  0.22288117  0.59495111  0.84129836    -0.22300
F3056       F  0.26010530  0.59317609  0.82783058    -0.23900
C3057       C  0.22019074  0.57750900  0.64246671    -0.10700
C3058       C  0.24214358  0.58636291  0.63977325     0.11900
C3059       C  0.26070421  0.57153166  0.63393186    -0.02500
C3060       C  0.25635953  0.54828329  0.62874828    -0.05200
C3061       C  0.23418532  0.53972501  0.62871508    -0.16000
C3062       C  0.21572849  0.55445260  0.63634157     0.02900
C3063       C  0.24486171  0.61138092  0.64130151     0.12900
C3064       C  0.28485487  0.58032971  0.63230250     0.63500
H3065       H  0.27019077  0.53669845  0.62304338     0.12900
C3066       C  0.19106004  0.54714868  0.63796606     0.55600
H3067       H  0.20619276  0.58898182  0.64789050     0.08700
C3068       C  0.24002812  0.62526065  0.61009269    -0.05100
C3069       C  0.24262204  0.64886660  0.61344785    -0.05900
C3070       C  0.24923722  0.65887860  0.64704320    -0.15400
C3071       C  0.25418880  0.64503224  0.67818618    -0.01000
C3072       C  0.25176493  0.62137392  0.67480174    -0.08600
C3073       C  0.23187697  0.61520252  0.57357039     0.65700
H3074       H  0.23898157  0.65982094  0.59001471     0.11100
C3075       C  0.26259713  0.65520333  0.71438074     0.64100
H3076       H  0.25512839  0.61044129  0.69835942     0.08500
F3077       F  0.17879773  0.55886195  0.61132259    -0.19000
F3078       F  0.18242184  0.55241286  0.67255222    -0.15200
F3079       F  0.18791852  0.52424109  0.63209709    -0.18700
F3080       F  0.29070744  0.58983450  0.66604401    -0.22100
F3081       F  0.28669877  0.59657995  0.60482376    -0.23500
F3082       F  0.30023709  0.56320724  0.62468908    -0.17500
F3083       F  0.24589204  0.66869449  0.72970282    -0.20000
F3084       F  0.28166131  0.66820661  0.70780179    -0.21200
F3085       F  0.26833846  0.63865950  0.74004364    -0.18400
F3086       F  0.22923927  0.63159941  0.54640605    -0.18400
F3087       F  0.21111049  0.60484644  0.57847480    -0.22300
F3088       F  0.24732906  0.59936548  0.56092353    -0.23900
C3089       C  0.22338263  0.41880956  0.64769749    -0.10700
C3090       C  0.24108076  0.40777988  0.62902788     0.11900
C3091       C  0.25588894  0.42052354  0.60633897    -0.02500
C3092       C  0.25209527  0.44393295  0.60260789    -0.05200
C3093       C  0.23456751  0.45507530  0.62159347    -0.16000
C3094       C  0.21970323  0.44229672  0.64428115     0.02900
C3095       C  0.24221939  0.38261152  0.63056693     0.12900
C3096       C  0.27558675  0.40948231  0.58607581     0.63500
H3097       H  0.26278557  0.45381997  0.58438613     0.12900
C3098       C  0.19915212  0.45195578  0.66402044     0.55600
H3099       H  0.21175331  0.40877107  0.66412830     0.08700
C3100       C  0.25126951  0.37069607  0.66128703    -0.05100
C3101       C  0.25201035  0.34683486  0.65993290    -0.05900
C3102       C  0.24384502  0.33451097  0.62909427    -0.15400
C3103       C  0.23442700  0.34674989  0.59842816    -0.01000
C3104       C  0.23360738  0.37056658  0.60020419    -0.08600
C3105       C  0.26006973  0.38315608  0.69530294     0.65700
H3106       H  0.25888981  0.33760966  0.68339878     0.11100
C3107       C  0.22549462  0.33522711  0.56351355     0.64100
H3108       H  0.22629866  0.38022410  0.57752417     0.08500
F3109       F  0.18003181  0.44003368  0.65331678    -0.19000
F3110       F  0.19525620  0.47455894  0.65643267    -0.15200
F3111       F  0.20210879  0.44948114  0.70188749    -0.18700
F3112       F  0.26756824  0.39455321  0.55961702    -0.22100
F3113       F  0.28912906  0.39783199  0.61105244    -0.23500
F3114       F  0.28899401  0.42533244  0.56828530    -0.17500
F3115       F  0.20660093  0.32239520  0.57194961    -0.20000
F3116       F  0.24217127  0.32156148  0.54841175    -0.21200
F3117       F  0.21908344  0.35071250  0.53653050    -0.18400
F3118       F  0.26909630  0.36843202  0.72143150    -0.18400
F3119       F  0.24257730  0.39498680  0.71186600    -0.22300
F3120       F  0.27686115  0.39821707  0.68514262    -0.23900
C3121       C  0.26388467  0.48281541  0.72754657    -0.10700
C3122       C  0.24893659  0.49320545  0.75249863     0.11900
C3123       C  0.23124647  0.50713623  0.73875395    -0.02500
C3124       C  0.22708366  0.50739908  0.70035499    -0.05200
C3125       C  0.24156851  0.49647461  0.67517524    -0.16000
C3126       C  0.26130914  0.48547265  0.68894485     0.02900
C3127       C  0.25295199  0.49059041  0.79290328     0.12900
C3128       C  0.21789032  0.52278613  0.76420650     0.63500
H3129       H  0.21258788  0.51648105  0.68958164     0.12900
C3130       C  0.28084952  0.47786850  0.66478008     0.55600
H3131       H  0.27830866  0.47344921  0.73839090     0.08700
C3132       C  0.23912357  0.47659963  0.81510808    -0.05100
C3133       C  0.24083468  0.47859049  0.85388043    -0.05900
C3134       C  0.25814925  0.49135382  0.87079104    -0.15400
C3135       C  0.27503159  0.50109312  0.84777602    -0.01000
C3136       C  0.27111685  0.50214692  0.80931152    -0.08600
C3137       C  0.22396684  0.45859881  0.79792746     0.65700
H3138       H  0.22887833  0.46978715  0.87120289     0.11100
C3139       C  0.29822374  0.50836480  0.86133042     0.64100
H3140       H  0.28293034  0.51117761  0.79171175     0.08500
F3141       F  0.28257235  0.45450928  0.66583721    -0.19000
F3142       F  0.30081096  0.48700014  0.67840259    -0.15200
F3143       F  0.27861650  0.48494201  0.62839483    -0.18700
F3144       F  0.23270302  0.53741264  0.78188162    -0.22100
F3145       F  0.20627488  0.51062148  0.79073638    -0.23500
F3146       F  0.20225715  0.53569454  0.74467224    -0.17500
F3147       F  0.31461982  0.49685403  0.84140615    -0.20000
F3148       F  0.30179898  0.50349852  0.89839832    -0.21200
F3149       F  0.30100377  0.53131869  0.85524467    -0.18400
F3150       F  0.21301404  0.44591823  0.82474518    -0.18400
F3151       F  0.23714770  0.44402607  0.77701696    -0.22300
F3152       F  0.20770222  0.46821703  0.77517405    -0.23900
loop_ 
_geom_bond_atom_site_label_1 
_geom_bond_atom_site_label_2 
_geom_bond_distance 
_geom_bond_site_symmetry_2 
_ccdc_geom_bond_type 
N1            C5   1.358       .  A
N1            C2   1.361       .  A
N1         C1549   1.446       .  S
C2            C3   1.383       .  A
C2         C1517   1.483       .  S
C3            C4   1.376       .  A
C3            H6   1.082       .  S
C4            C5   1.381       .  A
C4            H7   1.082       .  S
C5         C1485   1.479       .  S
N8           C12   1.361       .  A
N8            C9   1.358       .  A
N8         C1558   1.448       .  S
C9           C10   1.382       .  A
C9         C1421   1.480       .  S
C10          C11   1.374       .  A
C10          H13   1.082       .  S
C11          C12   1.382       .  A
C11          H14   1.082       .  S
C12        C1453   1.482       .  S
N15          C19   1.363   1_455  A
N15          C16   1.365       .  A
N15        C1389   1.449       .  S
C16          C17   1.383       .  A
C16        C1334   1.487       .  S
C17          C18   1.372   1_455  A
C17          H20   1.082       .  S
C18          C19   1.381       .  A
C18          H21   1.082       .  S
C19        C1357   1.488       .  S
N22          C26   1.361       .  A
N22          C23   1.364   1_455  A
N22        C1398   1.447       .  S
C23          C24   1.382       .  A
C23        C1302   1.486       .  S
C24          C25   1.373   1_655  A
C24          H27   1.082       .  S
C25          C26   1.380       .  A
C25          H28   1.081       .  S
C26        C1261   1.484       .  S
Zn29         O33   1.962       .  S
Zn29         O34   2.044       .  S
Zn29         O38   2.024       .  S
Zn29         O45   2.015       .  S
Zn30         O33   1.970       .  S
Zn30         O35   2.027       .  S
Zn30         O37   2.037       .  S
Zn30         O41   2.026       .  S
Zn31         O33   1.963       .  S
Zn31         O36   2.014       .  S
Zn31         O39   2.014       .  S
Zn31         O42   2.031       .  S
Zn32         O33   1.972       .  S
Zn32         O40   2.044       .  S
Zn32         O43   2.023       .  S
Zn32         O44   2.042       .  S
O34          C46   1.276       .  A
O35          C47   1.275       .  A
O36          C48   1.271       .  A
O37          C46   1.275       .  A
O38          C48   1.276       .  A
O39          C47   1.272       .  A
O40          C49   1.276       .  A
O41          C50   1.273       .  A
O42          C49   1.274       .  A
O43          C50   1.276       .  A
O44          C51   1.277       .  A
O45          C51   1.272       .  A
C46        C1649   1.482       .  S
C47        C1229   1.492       .  S
C48        C1197   1.494       .  S
C49          C71   1.480       .  S
C50        C1325   1.502       .  S
C51        C1462   1.496       .  S
Zn52         O56   1.970       .  S
Zn52         O57   2.022       .  S
Zn52         O61   2.038       .  S
Zn52         O68   2.024       .  S
Zn53         O56   1.969       .  S
Zn53         O58   2.026       .  S
Zn53         O60   2.030       .  S
Zn53         O64   2.041       .  S
Zn54         O56   1.969       .  S
Zn54         O59   2.035       .  S
Zn54         O62   2.028       .  S
Zn54         O65   2.029       .  S
Zn55         O56   1.974       .  S
Zn55         O63   2.029       .  S
Zn55         O66   2.048       .  S
Zn55         O67   2.028       .  S
O57          C69   1.274       .  A
O58          C70   1.275       .  A
O59          C71   1.274       .  A
O60          C69   1.275       .  A
O61          C71   1.275       .  A
O62          C70   1.275       .  A
O63          C72   1.275       .  A
O64          C73   1.275       .  A
O65          C72   1.275       .  A
O66          C73   1.277       .  A
O67          C74   1.274       .  A
O68          C74   1.274       .  A
C69        C1133   1.472       .  S
C70        C1494   1.479       .  S
C72        C1270   1.488       .  S
C73        C1622   1.484       .  S
C74        C1165   1.475       .  S
N75          C79   1.359       .  A
N75          C76   1.362       .  A
N75        C1101   1.449       .  S
C76          C77   1.383       .  A
C76        C1142   1.485       .  S
C77          C78   1.372       .  A
C77          H80   1.081       .  S
C78          C79   1.381       .  A
C78          H81   1.080       .  S
C79        C1069   1.482       .  S
N82          C86   1.358       .  A
N82          C83   1.362       .  A
N82        C1110   1.451       .  S
C83          C84   1.383       .  A
C83        C1046   1.480       .  S
C84          C85   1.372       .  A
C84          H87   1.082       .  S
C85          C86   1.380       .  A
C85          H88   1.080       .  S
C86        C1206   1.478       .  S
Zn89         O93   1.965       .  S
Zn89         O94   2.012       .  S
Zn89         O98   2.035       .  S
Zn89        O105   2.020       .  S
Zn90         O93   1.979       .  S
Zn90         O95   2.035       .  S
Zn90         O97   2.037       .  S
Zn90        O101   2.045       .  S
Zn91         O93   1.970       .  S
Zn91         O96   2.042       .  S
Zn91         O99   2.015       .  S
Zn91        O102   2.026       .  S
Zn92         O93   1.967       .  S
Zn92        O100   2.018       .  S
Zn92        O103   2.036       .  S
Zn92        O104   2.031       .  S
O94         C106   1.273       .  A
O95         C107   1.275       .  A
O96         C108   1.274       .  A
O97         C106   1.276       .  A
O98         C108   1.273       .  A
O99         C107   1.273       .  A
O100        C109   1.274       .  A
O101        C110   1.275       .  A
O102        C109   1.274       .  A
O103        C110   1.274       .  A
O104        C111   1.275       .  A
O105        C111   1.273       .  A
C106       C1366   1.483       .  S
C107       C1005   1.477       .  S
C108        C133   1.473       .  S
C109       C1037   1.474       .  S
C110       C1707   1.474       .  S
C111        C982   1.473       .  S
Zn112       O116   1.966       .  S
Zn112       O117   2.014       .  S
Zn112       O121   2.032       .  S
Zn112       O128   2.016       .  S
Zn113       O116   1.973       .  S
Zn113       O118   2.018       .  S
Zn113       O120   2.018       .  S
Zn113       O124   2.035       .  S
Zn114       O116   1.973       .  S
Zn114       O119   2.047       .  S
Zn114       O122   2.034       .  S
Zn114       O125   2.029       .  S
Zn115       O116   1.966       .  S
Zn115       O123   2.028       .  S
Zn115       O126   2.043       .  S
Zn115       O127   2.019       .  S
O117        C129   1.274       .  A
O118        C130   1.274       .  A
O119        C131   1.275       .  A
O120        C129   1.272       .  A
O121        C131   1.273       .  A
O122        C130   1.276       .  A
O123        C132   1.275       .  A
O124        C133   1.273       .  A
O125        C132   1.275       .  A
O126        C133   1.274       .  A
O127        C134   1.274       .  A
O128        C134   1.272       .  A
C129       C1078   1.477       .  S
C130        C909   1.475       .  S
C131       C1686   1.474   1_554  S
C132       C1293   1.477       .  S
C134        C941   1.479       .  S
N135        C139   1.359       .  A
N135        C136   1.362       .  A
N135        C877   1.446       .  S
C136        C137   1.384       .  A
C136        C918   1.488       .  S
C137        C138   1.373       .  A
C137        H140   1.082       .  S
C138        C139   1.382       .  A
C138        H141   1.080       .  S
C139        C845   1.486       .  S
N142        C146   1.361       .  A
N142        C143   1.363       .  A
N142        C886   1.447       .  S
C143        C144   1.382       .  A
C143        C973   1.486       .  S
C144        C145   1.373       .  A
C144        H147   1.080       .  S
C145        C146   1.380       .  A
C145        H148   1.082       .  S
C146        C813   1.484       .  S
N149        C153   1.360   1_545  A
N149        C150   1.363       .  A
N149        C781   1.446       .  S
C150        C151   1.382       .  A
C150        C758   1.488       .  S
C151        C152   1.373   1_545  A
C151        H154   1.078       .  S
C152        C153   1.380       .  A
C152        H155   1.079       .  S
C153       C1014   1.487       .  S
N156        C160   1.359       .  A
N156        C157   1.360   1_565  A
N156        C790   1.445   1_565  S
C157        C158   1.382       .  A
C157        C726   1.483       .  S
C158        C159   1.373   1_545  A
C158        H161   1.080       .  S
C159        C160   1.379       .  A
C159        H162   1.081       .  S
C160        C950   1.480       .  S
Zn163       O167   1.966       .  S
Zn163       O168   2.010       .  S
Zn163       O172   2.027       .  S
Zn163       O179   2.047       .  S
Zn164       O167   1.982       .  S
Zn164       O169   2.049       .  S
Zn164       O171   2.041       .  S
Zn164       O175   2.050       .  S
Zn165       O167   1.965       .  S
Zn165       O170   2.025       .  S
Zn165       O173   2.033       .  S
Zn165       O176   2.013       .  S
Zn166       O167   1.966       .  S
Zn166       O174   2.021       .  S
Zn166       O177   2.014       .  S
Zn166       O178   2.043       .  S
O168        C180   1.275       .  A
O169        C181   1.275       .  A
O170        C182   1.275       .  A
O171        C180   1.276       .  A
O172        C182   1.273       .  A
O173        C181   1.273       .  A
O174        C183   1.274       .  A
O175        C184   1.279       .  A
O176        C183   1.273       .  A
O177        C184   1.271       .  A
O178        C185   1.275       .  A
O179        C185   1.275       .  A
C180        C685   1.492       .  S
C181       C1783   1.474       .  S
C182        C822   1.492       .  S
C183        C653   1.479       .  S
C184        C749   1.507       .  S
C185        C205   1.477       .  S
Zn186       O190   1.971       .  S
Zn186       O191   2.036       .  S
Zn186       O195   2.051       .  S
Zn186       O202   2.032       .  S
Zn187       O190   1.969       .  S
Zn187       O192   2.024       .  S
Zn187       O194   2.018       .  S
Zn187       O198   2.043       .  S
Zn188       O190   1.961       .  S
Zn188       O193   2.040       .  S
Zn188       O196   2.013       .  S
Zn188       O199   2.014       .  S
Zn189       O190   1.968       .  S
Zn189       O197   2.022       .  S
Zn189       O200   2.044       .  S
Zn189       O201   2.026       .  S
O191        C203   1.278       .  A
O192        C204   1.275       .  A
O193        C205   1.274       .  A
O194        C203   1.272       .  A
O195        C205   1.275       .  A
O196        C204   1.271       .  A
O197        C206   1.275       .  A
O198        C207   1.274       .  A
O199        C206   1.272       .  A
O200        C207   1.275       .  A
O201        C208   1.277       .  A
O202        C208   1.274       .  A
C203        C854   1.501       .  S
C204        C621   1.499       .  S
C206        C717   1.492       .  S
C207       C1757   1.476       .  S
C208        C589   1.505       .  S
N209        C213   1.361       .  A
N209        C210   1.363       .  A
N209        C557   1.446       .  S
C210        C211   1.381       .  A
C210        C598   1.487       .  S
C211        C212   1.372       .  A
C211        H214   1.081       .  S
C212        C213   1.380       .  A
C212        H215   1.079       .  S
C213        C525   1.486       .  S
N216        C220   1.360       .  A
N216        C217   1.362       .  A
N216        C566   1.448       .  S
C217        C218   1.381       .  A
C217        C493   1.480       .  S
C218        C219   1.371       .  A
C218        H221   1.081       .  S
C219        C220   1.379       .  A
C219        H222   1.080       .  S
C220        C662   1.480       .  S
N223        C227   1.361   1_565  A
N223        C224   1.362       .  A
N223        C470   1.448       .  S
C224        C225   1.383       .  A
C224       C1238   1.483       .  S
C225        C226   1.372   1_565  A
C225        H228   1.082       .  S
C226        C227   1.380       .  A
C226        H229   1.081       .  S
C227        C429   1.483       .  S
N230        C234   1.360   1_565  A
N230        C231   1.362       .  A
N230        C461   1.449       .  S
C231        C232   1.381       .  A
C231       C1174   1.482       .  S
C232        C233   1.373   1_565  A
C232        H235   1.081       .  S
C233        C234   1.381       .  A
C233        H236   1.081       .  S
C234        C397   1.483       .  S
N237        C241   1.361   1_655  A
N237        C238   1.359       .  A
N237        C365   1.447       .  S
C238        C239   1.380       .  A
C238        C694   1.481       .  S
C239        C240   1.372   1_655  A
C239        H242   1.081       .  S
C240        C241   1.382       .  A
C240        H243   1.081       .  S
C241        C342   1.484       .  S
N244        C248   1.361   1_455  A
N244        C245   1.358       .  A
N244        C374   1.449       .  S
C245        C246   1.380       .  A
C245        C301   1.479       .  S
C246        C247   1.371   1_455  A
C246        H249   1.080       .  S
C247        C248   1.382       .  A
C247        H250   1.081       .  S
C248        C630   1.479       .  S
Zn251       O255   1.966       .  S
Zn251       O256   2.016       .  S
Zn251       O260   2.030       .  S
Zn251       O267   2.010       .  S
Zn252       O255   1.966       .  S
Zn252       O257   2.028       .  S
Zn252       O259   2.015       .  S
Zn252       O263   2.029       .  S
Zn253       O255   1.959       .  S
Zn253       O258   2.048       .  S
Zn253       O261   2.014       .  S
Zn253       O264   2.018       .  S
Zn254       O255   1.971       .  S
Zn254       O262   2.029       .  S
Zn254       O265   2.047       .  S
Zn254       O266   2.023       .  S
O256        C268   1.272       .  A
O257        C269   1.276       .  A
O258        C270   1.276       .  A
O259        C268   1.273       .  A
O260        C270   1.274       .  A
O261        C269   1.272       .  A
O262        C271   1.274       .  A
O263        C272   1.274       .  A
O264        C271   1.275       .  A
O265        C272   1.276       .  A
O266        C273   1.276       .  A
O267        C273   1.270       .  A
C268       C1430   1.477       .  S
C269        C333   1.495       .  S
C270        C291   1.482       .  S
C271        C438   1.491       .  S
C272       C1870   1.481       .  S
C273        C502   1.500       .  S
Zn274       O278   1.965       .  S
Zn274       O279   2.039       .  S
Zn274       O283   2.023       .  S
Zn274       O290   2.022       .  S
Zn275       O278   1.974       .  S
Zn275       O280   2.023       .  S
Zn275       O282   2.042       .  S
Zn275       O286   2.042       .  S
Zn276       O278   1.973       .  S
Zn276       O281   2.033       .  S
Zn276       O284   2.027       .  S
Zn276       O287   2.041       .  S
Zn277       O278   1.962       .  S
Zn277       O285   2.028       .  S
Zn277       O288   2.013       .  S
Zn277       O289   2.009       .  S
O279        C291   1.275       .  A
O280        C292   1.274       .  A
O281        C293   1.275       .  A
O282        C291   1.276       .  A
O283        C293   1.274       .  A
O284        C292   1.276       .  A
O285        C294   1.274       .  A
O286        C295   1.277       .  A
O287        C294   1.275       .  A
O288        C295   1.271       .  A
O289        C296   1.271       .  A
O290        C296   1.275       .  A
C292        C534   1.482       .  S
C293        C406   1.477       .  S
C294       C1848   1.479   1_554  S
C295       C1526   1.502       .  S
C296        C310   1.475       .  S
C297        C298   1.399       .  A
C297        C302   1.402       .  A
C297        H307   1.083       .  S
C298        C299   1.414       .  A
C298        C303   1.479       .  S
C299        C300   1.406       .  A
C299        C304   1.518       .  S
C300        C301   1.403       .  A
C300        H305   1.083       .  S
C301        C302   1.418       .  A
C302        C306   1.521       .  S
C303        C308   1.416       .  A
C303        C312   1.402       .  A
C304        F320   1.382       .  S
C304        F321   1.382       .  S
C304        F322   1.385       .  S
C306        F317   1.380       .  S
C306        F318   1.385       .  S
C306        F319   1.383       .  S
C308        C309   1.403       .  A
C308        C313   1.521       .  S
C309        C310   1.402       .  A
C309        H314   1.084       .  S
C310        C311   1.418       .  A
C311        C312   1.408       .  A
C311        C315   1.519       .  S
C312        H316   1.083       .  S
C313        F326   1.384       .  S
C313        F327   1.382       .  S
C313        F328   1.382       .  S
C315        F323   1.385       .  S
C315        F324   1.383       .  S
C315        F325   1.382       .  S
C329        C330   1.399       .  A
C329        C334   1.406       .  A
C329        H339   1.083       .  S
C330        C331   1.412       .  A
C330        C335   1.484       .  S
C331        C332   1.409       .  A
C331        C336   1.519       .  S
C332        C333   1.411       .  A
C332        H337   1.083       .  S
C333        C334   1.427       .  A
C334        C338   1.522       .  S
C335        C340   1.415       .  A
C335        C344   1.402       .  A
C336        F352   1.382       .  S
C336        F353   1.382       .  S
C336        F354   1.384       .  S
C338        F349   1.384       .  S
C338        F350   1.383       .  S
C338        F351   1.384       .  S
C340        C341   1.404       .  A
C340        C345   1.521       .  S
C341        C342   1.405       .  A
C341        H346   1.083       .  S
C342        C343   1.420       .  A
C343        C344   1.407       .  A
C343        C347   1.518       .  S
C344        H348   1.084       .  S
C345        F358   1.384       .  S
C345        F359   1.382       .  S
C345        F360   1.382       .  S
C347        F355   1.385       .  S
C347        F356   1.381       .  S
C347        F357   1.381       .  S
C361        C362   1.401       .  A
C361        C366   1.405       .  A
C361        H371   1.085       .  S
C362        C363   1.414   1_455  A
C362       C1943   1.483       .  S
C363        C364   1.406       .  A
C363        C368   1.520       .  S
C364        C365   1.406       .  A
C364        H369   1.080       .  S
C365        C366   1.421   1_655  A
C366        C370   1.517       .  S
C367        C372   1.413       .  A
C367        C376   1.401   1_455  A
C367       C1938   1.483   1_454  S
C368        F386   1.384       .  S
C368       F1960   1.383       .  S
C368       F1961   1.380       .  S
C370        F381   1.384       .  S
C370        F382   1.381       .  S
C370        F383   1.383       .  S
C372        C373   1.405       .  A
C372        C377   1.520       .  S
C373        C374   1.407       .  A
C373        H378   1.080       .  S
C374        C375   1.420   1_455  A
C375        C376   1.406       .  A
C375        C379   1.515       .  S
C376        H380   1.085       .  S
C377        F390   1.385       .  S
C377        F391   1.383       .  S
C377        F392   1.380       .  S
C379        F387   1.384       .  S
C379        F388   1.381       .  S
C379        F389   1.383       .  S
F384       C1944   1.383   1_554  S
F385       C1944   1.380   1_554  S
C393        C394   1.402       .  A
C393        C398   1.406       .  A
C393        H403   1.083       .  S
C394        C395   1.417       .  A
C394        C399   1.486       .  S
C395        C396   1.409       .  A
C395        C400   1.519       .  S
C396        C397   1.403       .  A
C396        H401   1.083       .  S
C397        C398   1.419       .  A
C398        C402   1.522       .  S
C399        C404   1.418       .  A
C399        C408   1.402       .  A
C400        F416   1.382       .  S
C400        F417   1.381       .  S
C400        F418   1.384       .  S
C402        F413   1.385       .  S
C402        F414   1.381       .  S
C402        F415   1.381       .  S
C404        C405   1.411       .  A
C404        C409   1.520       .  S
C405        C406   1.404       .  A
C405        H410   1.083       .  S
C406        C407   1.415       .  A
C407        C408   1.405       .  A
C407        C411   1.518       .  S
C408        H412   1.083       .  S
C409        F422   1.385       .  S
C409        F423   1.382       .  S
C409        F424   1.382       .  S
C411        F419   1.382       .  S
C411        F420   1.384       .  S
C411        F421   1.385       .  S
C425        C426   1.401       .  A
C425        C430   1.407       .  A
C425        H435   1.083       .  S
C426        C427   1.416       .  A
C426        C431   1.485       .  S
C427        C428   1.406       .  A
C427        C432   1.519       .  S
C428        C429   1.403       .  A
C428        H433   1.083       .  S
C429        C430   1.417       .  A
C430        C434   1.516       .  S
C431        C436   1.415       .  A
C431        C440   1.401       .  A
C432        F448   1.382       .  S
C432        F449   1.382       .  S
C432        F450   1.384       .  S
C434        F445   1.385       .  S
C434        F446   1.378       .  S
C434        F447   1.384       .  S
C436        C437   1.406       .  A
C436        C441   1.521       .  S
C437        C438   1.408       .  A
C437        H442   1.083       .  S
C438        C439   1.424       .  A
C439        C440   1.408       .  A
C439        C443   1.520       .  S
C440        H444   1.083       .  S
C441        F454   1.385       .  S
C441        F455   1.382       .  S
C441        F456   1.382       .  S
C443        F451   1.383       .  S
C443        F452   1.383       .  S
C443        F453   1.385       .  S
C457        C458   1.403       .  A
C457        C462   1.408       .  A
C457        H467   1.084       .  S
C458        C459   1.416   1_565  A
C458       C2039   1.490   1_554  S
C459        C460   1.405       .  A
C459        C464   1.520       .  S
C460        C461   1.404   1_545  A
C460        H465   1.077       .  S
C461        C462   1.420       .  A
C462        C466   1.515       .  S
C463        C468   1.417   1_565  A
C463        C472   1.402       .  A
C463       C2034   1.489       .  S
C464        F480   1.381       .  S
C464        F481   1.383       .  S
C464        F482   1.385       .  S
C466        F477   1.384       .  S
C466        F478   1.383       .  S
C466        F479   1.381       .  S
C468        C469   1.406       .  A
C468        C473   1.521       .  S
C469        C470   1.405   1_545  A
C469        H474   1.081       .  S
C470        C471   1.421       .  A
C471        C472   1.406       .  A
C471        C475   1.516       .  S
C472        H476   1.084       .  S
C473        F486   1.385       .  S
C473       F2063   1.381       .  S
C473       F2064   1.383       .  S
C475        F483   1.383       .  S
C475        F484   1.379       .  S
C475        F485   1.384       .  S
F487       C2049   1.381   1_554  S
F488       C2049   1.383   1_554  S
C489        C490   1.398       .  A
C489        C494   1.400       .  A
C489        H499   1.085       .  S
C490        C491   1.415       .  A
C490        C495   1.482       .  S
C491        C492   1.410       .  A
C491        C496   1.518       .  S
C492        C493   1.406       .  A
C492        H497   1.083       .  S
C493        C494   1.423       .  A
C494        C498   1.522       .  S
C495        C500   1.413       .  A
C495        C504   1.398       .  A
C496        F512   1.382       .  S
C496        F513   1.382       .  S
C496        F514   1.384       .  S
C498        F509   1.383       .  S
C498        F510   1.384       .  S
C498        F511   1.380       .  S
C500        C501   1.404       .  A
C500        C505   1.522       .  S
C501        C502   1.411       .  A
C501        H506   1.082       .  S
C502        C503   1.431       .  A
C503        C504   1.410       .  A
C503        C507   1.523       .  S
C504        H508   1.083       .  S
C505        F518   1.384       .  S
C505        F519   1.381       .  S
C505        F520   1.382       .  S
C507        F515   1.384       .  S
C507        F516   1.383       .  S
C507        F517   1.385       .  S
C521        C522   1.400       .  A
C521        C526   1.405       .  A
C521        H531   1.083       .  S
C522        C523   1.416       .  A
C522        C527   1.486       .  S
C523        C524   1.411       .  A
C523        C528   1.518       .  S
C524        C525   1.404       .  A
C524        H529   1.083       .  S
C525        C526   1.421       .  A
C526        C530   1.522       .  S
C527        C532   1.417       .  A
C527        C536   1.403       .  A
C528        F544   1.382       .  S
C528        F545   1.382       .  S
C528        F546   1.384       .  S
C530        F541   1.380       .  S
C530        F542   1.385       .  S
C530        F543   1.382       .  S
C532        C533   1.406       .  A
C532        C537   1.520       .  S
C533        C534   1.403       .  A
C533        H538   1.083       .  S
C534        C535   1.420       .  A
C535        C536   1.410       .  A
C535        C539   1.519       .  S
C536        H540   1.083       .  S
C537        F550   1.385       .  S
C537        F551   1.382       .  S
C537        F552   1.382       .  S
C539        F547   1.385       .  S
C539        F548   1.384       .  S
C539        F549   1.382       .  S
C553        C554   1.400       .  A
C553        C558   1.405       .  A
C553        H563   1.085       .  S
C554        C555   1.413       .  A
C554        C559   1.478       .  S
C555        C556   1.403       .  A
C555        C560   1.520       .  S
C556        C557   1.404       .  A
C556        H561   1.079       .  S
C557        C558   1.420       .  A
C558        C562   1.513       .  S
C559        C564   1.410       .  A
C559        C568   1.401       .  A
C560        F576   1.383       .  S
C560        F577   1.381       .  S
C560        F578   1.384       .  S
C562        F573   1.382       .  S
C562        F574   1.384       .  S
C562        F575   1.380       .  S
C564        C565   1.401       .  A
C564        C569   1.520       .  S
C565        C566   1.407       .  A
C565        H570   1.078       .  S
C566        C567   1.422       .  A
C567        C568   1.406       .  A
C567        C571   1.515       .  S
C568        H572   1.084       .  S
C569        F582   1.385       .  S
C569        F583   1.383       .  S
C569        F584   1.381       .  S
C571        F579   1.384       .  S
C571        F580   1.379       .  S
C571        F581   1.383       .  S
C585        C586   1.399       .  A
C585        C590   1.411       .  A
C585        H595   1.083       .  S
C586        C587   1.414       .  A
C586        C591   1.488       .  S
C587        C588   1.407       .  A
C587        C592   1.522       .  S
C588        C589   1.412       .  A
C588        H593   1.082       .  S
C589        C590   1.430       .  A
C590        C594   1.521       .  S
C591        C596   1.416       .  A
C591        C600   1.398       .  A
C592        F608   1.382       .  S
C592        F609   1.382       .  S
C592        F610   1.385       .  S
C594        F605   1.385       .  S
C594        F606   1.383       .  S
C594        F607   1.384       .  S
C596        C597   1.413       .  A
C596        C601   1.518       .  S
C597        C598   1.407       .  A
C597        H602   1.083       .  S
C598        C599   1.424       .  A
C599        C600   1.402       .  A
C599        C603   1.521       .  S
C600        H604   1.085       .  S
C601        F614   1.384       .  S
C601        F615   1.382       .  S
C601        F616   1.382       .  S
C603        F611   1.384       .  S
C603        F612   1.379       .  S
C603        F613   1.383       .  S
C617        C618   1.398       .  A
C617        C622   1.405       .  A
C617        H627   1.083       .  S
C618        C619   1.410       .  A
C618        C623   1.481       .  S
C619        C620   1.408       .  A
C619        C624   1.520       .  S
C620        C621   1.414       .  A
C620        H625   1.082       .  S
C621        C622   1.429       .  A
C622        C626   1.523       .  S
C623        C628   1.414       .  A
C623        C632   1.403       .  A
C624        F640   1.382       .  S
C624        F641   1.382       .  S
C624        F642   1.385       .  S
C626        F637   1.385       .  S
C626        F638   1.383       .  S
C626        F639   1.383       .  S
C628        C629   1.402       .  A
C628        C633   1.521       .  S
C629        C630   1.405       .  A
C629        H634   1.083       .  S
C630        C631   1.418       .  A
C631        C632   1.407       .  A
C631        C635   1.518       .  S
C632        H636   1.085       .  S
C633        F646   1.385       .  S
C633        F647   1.382       .  S
C633        F648   1.381       .  S
C635        F643   1.384       .  S
C635        F644   1.380       .  S
C635        F645   1.382       .  S
C649        C650   1.400       .  A
C649        C654   1.404       .  A
C649        H659   1.084       .  S
C650        C651   1.415       .  A
C650        C655   1.481       .  S
C651        C652   1.408       .  A
C651        C656   1.520       .  S
C652        C653   1.406       .  A
C652        H657   1.083       .  S
C653        C654   1.419       .  A
C654        C658   1.520       .  S
C655        C660   1.416       .  A
C655        C664   1.402       .  A
C656        F672   1.382       .  S
C656        F673   1.382       .  S
C656        F674   1.384       .  S
C658        F669   1.384       .  S
C658        F670   1.385       .  S
C658        F671   1.382       .  S
C660        C661   1.404       .  A
C660        C665   1.520       .  S
C661        C662   1.403       .  A
C661        H666   1.083       .  S
C662        C663   1.414       .  A
C663        C664   1.406       .  A
C663        C667   1.516       .  S
C664        H668   1.083       .  S
C665        F678   1.385       .  S
C665        F679   1.382       .  S
C665        F680   1.382       .  S
C667        F675   1.384       .  S
C667        F676   1.383       .  S
C667        F677   1.379       .  S
C681        C682   1.402       .  A
C681        C686   1.411       .  A
C681        H691   1.083       .  S
C682        C683   1.415       .  A
C682        C687   1.485       .  S
C683        C684   1.404       .  A
C683        C688   1.522       .  S
C684        C685   1.407       .  A
C684        H689   1.083       .  S
C685        C686   1.424       .  A
C686        C690   1.519       .  S
C687        C692   1.417       .  A
C687        C696   1.400       .  A
C688        F704   1.382       .  S
C688        F705   1.382       .  S
C688        F706   1.385       .  S
C690        F701   1.385       .  S
C690        F702   1.382       .  S
C690        F703   1.384       .  S
C692        C693   1.409       .  A
C692        C697   1.518       .  S
C693        C694   1.402       .  A
C693        H698   1.083       .  S
C694        C695   1.418       .  A
C695        C696   1.404       .  A
C695        C699   1.521       .  S
C696        H700   1.083       .  S
C697        F710   1.385       .  S
C697        F711   1.382       .  S
C697        F712   1.382       .  S
C699        F707   1.385       .  S
C699        F708   1.382       .  S
C699        F709   1.381       .  S
C713        C714   1.400       .  A
C713        C718   1.406       .  A
C713        H723   1.083       .  S
C714        C715   1.414       .  A
C714        C719   1.483       .  S
C715        C716   1.406       .  A
C715        C720   1.520       .  S
C716        C717   1.409       .  A
C716        H721   1.083       .  S
C717        C718   1.425       .  A
C718        C722   1.521       .  S
C719        C724   1.416       .  A
C719        C728   1.398       .  A
C720        F736   1.382       .  S
C720        F737   1.382       .  S
C720        F738   1.385       .  S
C722        F733   1.385       .  S
C722        F734   1.383       .  S
C722        F735   1.384       .  S
C724        C725   1.408       .  A
C724        C729   1.519       .  S
C725        C726   1.405       .  A
C725        H730   1.082       .  S
C726        C727   1.422       .  A
C727        C728   1.401       .  A
C727        C731   1.522       .  S
C728        H732   1.085       .  S
C729        F742   1.385       .  S
C729        F743   1.382       .  S
C729        F744   1.382       .  S
C731        F739   1.383       .  S
C731        F740   1.380       .  S
C731        F741   1.384       .  S
C745        C746   1.397       .  A
C745        C750   1.409       .  A
C745        H755   1.083       .  S
C746        C747   1.413       .  A
C746        C751   1.487       .  S
C747        C748   1.410       .  A
C747        C752   1.520       .  S
C748        C749   1.413       .  A
C748        H753   1.082       .  S
C749        C750   1.433       .  A
C750        C754   1.523       .  S
C751        C756   1.416       .  A
C751        C760   1.399       .  A
C752        F768   1.382       .  S
C752        F769   1.382       .  S
C752        F770   1.384       .  S
C754        F765   1.385       .  S
C754        F766   1.383       .  S
C754        F767   1.384       .  S
C756        C757   1.410       .  A
C756        C761   1.518       .  S
C757        C758   1.406       .  A
C757        H762   1.083       .  S
C758        C759   1.425       .  A
C759        C760   1.404       .  A
C759        C763   1.523       .  S
C760        H764   1.084       .  S
C761        F774   1.385       .  S
C761        F775   1.382       .  S
C761        F776   1.381       .  S
C763        F771   1.381       .  S
C763        F772   1.380       .  S
C763        F773   1.385       .  S
C777        C778   1.401       .  A
C777        C782   1.403       .  A
C777        H787   1.084       .  S
C778        C779   1.415   1_545  A
C778       C2359   1.483       .  S
C779        C780   1.404       .  A
C779        C784   1.520       .  S
C780        C781   1.404   1_565  A
C780        H785   1.079       .  S
C781        C782   1.419       .  A
C782        C786   1.513       .  S
C783        C788   1.415   1_545  A
C783        C792   1.403       .  A
C783       C2354   1.483   1_554  S
C784        F802   1.385       .  S
C784       F2376   1.381       .  S
C784       F2377   1.383       .  S
C786        F797   1.384       .  S
C786        F798   1.382       .  S
C786        F799   1.378       .  S
C788        C789   1.401       .  A
C788        C793   1.521       .  S
C789        C790   1.404   1_565  A
C789        H794   1.079       .  S
C790        C791   1.421       .  A
C791        C792   1.406       .  A
C791        C795   1.516       .  S
C792        H796   1.084       .  S
C793        F806   1.385       .  S
C793        F807   1.381       .  S
C793        F808   1.383       .  S
C795        F803   1.383       .  S
C795        F804   1.379       .  S
C795        F805   1.384       .  S
F800       C2360   1.381   1_554  S
F801       C2360   1.383   1_554  S
C809        C810   1.403       .  A
C809        C814   1.408       .  A
C809        H819   1.083       .  S
C810        C811   1.415       .  A
C810        C815   1.486       .  S
C811        C812   1.407       .  A
C811        C816   1.519       .  S
C812        C813   1.404       .  A
C812        H817   1.083       .  S
C813        C814   1.415       .  A
C814        C818   1.515       .  S
C815        C820   1.415       .  A
C815        C824   1.401       .  A
C816        F832   1.382       .  S
C816        F833   1.382       .  S
C816        F834   1.385       .  S
C818        F829   1.384       .  S
C818        F830   1.379       .  S
C818        F831   1.383       .  S
C820        C821   1.407       .  A
C820        C825   1.521       .  S
C821        C822   1.407       .  A
C821        H826   1.083       .  S
C822        C823   1.424       .  A
C823        C824   1.410       .  A
C823        C827   1.520       .  S
C824        H828   1.083       .  S
C825        F838   1.384       .  S
C825        F839   1.382       .  S
C825        F840   1.382       .  S
C827        F835   1.384       .  S
C827        F836   1.383       .  S
C827        F837   1.385       .  S
C841        C842   1.401       .  A
C841        C846   1.405       .  A
C841        H851   1.084       .  S
C842        C843   1.417       .  A
C842        C847   1.487       .  S
C843        C844   1.409       .  A
C843        C848   1.518       .  S
C844        C845   1.404       .  A
C844        H849   1.083       .  S
C845        C846   1.419       .  A
C846        C850   1.519       .  S
C847        C852   1.413       .  A
C847        C856   1.399       .  A
C848        F864   1.382       .  S
C848        F865   1.382       .  S
C848        F866   1.385       .  S
C850        F861   1.385       .  S
C850        F862   1.382       .  S
C850        F863   1.383       .  S
C852        C853   1.408       .  A
C852        C857   1.520       .  S
C853        C854   1.411       .  A
C853        H858   1.082       .  S
C854        C855   1.430       .  A
C855        C856   1.409       .  A
C855        C859   1.523       .  S
C856        H860   1.083       .  S
C857        F870   1.384       .  S
C857        F871   1.382       .  S
C857        F872   1.382       .  S
C859        F867   1.384       .  S
C859        F868   1.383       .  S
C859        F869   1.385       .  S
C873        C874   1.403       .  A
C873        C878   1.406       .  A
C873        H883   1.084       .  S
C874        C875   1.416       .  A
C874        C879   1.486       .  S
C875        C876   1.406       .  A
C875        C880   1.520       .  S
C876        C877   1.405       .  A
C876        H881   1.081       .  S
C877        C878   1.418       .  A
C878        C882   1.515       .  S
C879        C884   1.415       .  A
C879        C888   1.402       .  A
C880        F896   1.381       .  S
C880        F897   1.383       .  S
C880        F898   1.385       .  S
C882        F893   1.384       .  S
C882        F894   1.383       .  S
C882        F895   1.380       .  S
C884        C885   1.404       .  A
C884        C889   1.520       .  S
C885        C886   1.405       .  A
C885        H890   1.079       .  S
C886        C887   1.421       .  A
C887        C888   1.406       .  A
C887        C891   1.517       .  S
C888        H892   1.084       .  S
C889        F902   1.385       .  S
C889        F903   1.381       .  S
C889        F904   1.383       .  S
C891        F899   1.384       .  S
C891        F900   1.383       .  S
C891        F901   1.381       .  S
C905        C906   1.402       .  A
C905        C910   1.406       .  A
C905        H915   1.085       .  S
C906        C907   1.418       .  A
C906        C911   1.487       .  S
C907        C908   1.408       .  A
C907        C912   1.520       .  S
C908        C909   1.403       .  A
C908        H913   1.083       .  S
C909        C910   1.420       .  A
C910        C914   1.521       .  S
C911        C916   1.417       .  A
C911        C920   1.398       .  A
C912        F928   1.381       .  S
C912        F929   1.382       .  S
C912        F930   1.385       .  S
C914        F925   1.383       .  S
C914        F926   1.384       .  S
C914        F927   1.381       .  S
C916        C917   1.412       .  A
C916        C921   1.518       .  S
C917        C918   1.407       .  A
C917        H922   1.082       .  S
C918        C919   1.423       .  A
C919        C920   1.401       .  A
C919        C923   1.521       .  S
C920        H924   1.085       .  S
C921        F934   1.385       .  S
C921        F935   1.382       .  S
C921        F936   1.382       .  S
C923        F931   1.383       .  S
C923        F932   1.380       .  S
C923        F933   1.384       .  S
C937        C938   1.402       .  A
C937        C942   1.408       .  A
C937        H947   1.083       .  S
C938        C939   1.415       .  A
C938        C943   1.481       .  S
C939        C940   1.404       .  A
C939        C944   1.521       .  S
C940        C941   1.403       .  A
C940        H945   1.083       .  S
C941        C942   1.419       .  A
C942        C946   1.519       .  S
C943        C948   1.415       .  A
C943        C952   1.401       .  A
C944        F960   1.382       .  S
C944        F961   1.382       .  S
C944        F962   1.384       .  S
C946        F957   1.385       .  S
C946        F958   1.382       .  S
C946        F959   1.383       .  S
C948        C949   1.404       .  A
C948        C953   1.519       .  S
C949        C950   1.403       .  A
C949        H954   1.083       .  S
C950        C951   1.415       .  A
C951        C952   1.407       .  A
C951        C955   1.516       .  S
C952        H956   1.083       .  S
C953        F966   1.384       .  S
C953        F967   1.382       .  S
C953        F968   1.382       .  S
C955        F963   1.379       .  S
C955        F964   1.383       .  S
C955        F965   1.385       .  S
C969        C970   1.403       .  A
C969        C974   1.409       .  A
C969        H979   1.084       .  S
C970        C971   1.415       .  A
C970        C975   1.488       .  S
C971        C972   1.406       .  A
C971        C976   1.520       .  S
C972        C973   1.406       .  A
C972        H977   1.083       .  S
C973        C974   1.419       .  A
C974        C978   1.518       .  S
C975        C980   1.417       .  A
C975        C984   1.403       .  A
C976        F992   1.382       .  S
C976        F993   1.383       .  S
C976        F994   1.384       .  S
C978        F989   1.384       .  S
C978        F990   1.383       .  S
C978        F991   1.381       .  S
C980        C981   1.407       .  A
C980        C985   1.520       .  S
C981        C982   1.402       .  A
C981        H986   1.084       .  S
C982        C983   1.419       .  A
C983        C984   1.408       .  A
C983        C987   1.519       .  S
C984        H988   1.085       .  S
C985        F998   1.385       .  S
C985        F999   1.382       .  S
C985       F1000   1.383       .  S
C987        F995   1.384       .  S
C987        F996   1.382       .  S
C987        F997   1.383       .  S
C1001      C1002   1.403       .  A
C1001      C1006   1.406       .  A
C1001      H1011   1.083       .  S
C1002      C1003   1.417       .  A
C1002      C1007   1.486       .  S
C1003      C1004   1.411       .  A
C1003      C1008   1.520       .  S
C1004      C1005   1.404       .  A
C1004      H1009   1.083       .  S
C1005      C1006   1.415       .  A
C1006      C1010   1.519       .  S
C1007      C1012   1.416       .  A
C1007      C1016   1.401       .  A
C1008      F1024   1.382       .  S
C1008      F1025   1.381       .  S
C1008      F1026   1.384       .  S
C1010      F1021   1.384       .  S
C1010      F1022   1.383       .  S
C1010      F1023   1.383       .  S
C1012      C1013   1.410       .  A
C1012      C1017   1.519       .  S
C1013      C1014   1.405       .  A
C1013      H1018   1.083       .  S
C1014      C1015   1.420       .  A
C1015      C1016   1.405       .  A
C1015      C1019   1.522       .  S
C1016      H1020   1.083       .  S
C1017      F1030   1.385       .  S
C1017      F1031   1.382       .  S
C1017      F1032   1.381       .  S
C1019      F1027   1.380       .  S
C1019      F1028   1.382       .  S
C1019      F1029   1.385       .  S
C1033      C1034   1.402       .  A
C1033      C1038   1.408       .  A
C1033      H1043   1.083       .  S
C1034      C1035   1.417       .  A
C1034      C1039   1.483       .  S
C1035      C1036   1.406       .  A
C1035      C1040   1.520       .  S
C1036      C1037   1.401       .  A
C1036      H1041   1.083       .  S
C1037      C1038   1.415       .  A
C1038      C1042   1.517       .  S
C1039      C1044   1.414       .  A
C1039      C1048   1.399       .  A
C1040      F1056   1.379       .  S
C1040      F1057   1.381       .  S
C1040      F1058   1.385       .  S
C1042      F1053   1.385       .  S
C1042      F1054   1.383       .  S
C1042      F1055   1.382       .  S
C1044      C1045   1.409       .  A
C1044      C1049   1.517       .  S
C1045      C1046   1.406       .  A
C1045      H1050   1.083       .  S
C1046      C1047   1.423       .  A
C1047      C1048   1.401       .  A
C1047      C1051   1.522       .  S
C1048      H1052   1.085       .  S
C1049      F1062   1.385       .  S
C1049      F1063   1.382       .  S
C1049      F1064   1.382       .  S
C1051      F1059   1.384       .  S
C1051      F1060   1.379       .  S
C1051      F1061   1.383       .  S
C1065      C1066   1.401       .  A
C1065      C1070   1.405       .  A
C1065      H1075   1.083       .  S
C1066      C1067   1.414       .  A
C1066      C1071   1.481       .  S
C1067      C1068   1.406       .  A
C1067      C1072   1.518       .  S
C1068      C1069   1.404       .  A
C1068      H1073   1.083       .  S
C1069      C1070   1.419       .  A
C1070      C1074   1.520       .  S
C1071      C1076   1.415       .  A
C1071      C1080   1.401       .  A
C1072      F1088   1.382       .  S
C1072      F1089   1.382       .  S
C1072      F1090   1.385       .  S
C1074      F1085   1.381       .  S
C1074      F1086   1.385       .  S
C1074      F1087   1.383       .  S
C1076      C1077   1.403       .  A
C1076      C1081   1.518       .  S
C1077      C1078   1.401       .  A
C1077      H1082   1.083       .  S
C1078      C1079   1.419       .  A
C1079      C1080   1.409       .  A
C1079      C1083   1.518       .  S
C1080      H1084   1.083       .  S
C1081      F1094   1.385       .  S
C1081      F1095   1.381       .  S
C1081      F1096   1.382       .  S
C1083      F1091   1.385       .  S
C1083      F1092   1.384       .  S
C1083      F1093   1.382       .  S
C1097      C1098   1.402       .  A
C1097      C1102   1.405       .  A
C1097      H1107   1.085       .  S
C1098      C1099   1.414       .  A
C1098      C1103   1.483       .  S
C1099      C1100   1.407       .  A
C1099      C1104   1.522       .  S
C1100      C1101   1.408       .  A
C1100      H1105   1.080       .  S
C1101      C1102   1.418       .  A
C1102      C1106   1.513       .  S
C1103      C1108   1.414       .  A
C1103      C1112   1.400       .  A
C1104      F1120   1.383       .  S
C1104      F1121   1.380       .  S
C1104      F1122   1.385       .  S
C1106      F1117   1.382       .  S
C1106      F1118   1.384       .  S
C1106      F1119   1.379       .  S
C1108      C1109   1.407       .  A
C1108      C1113   1.520       .  S
C1109      C1110   1.407       .  A
C1109      H1114   1.080       .  S
C1110      C1111   1.421       .  A
C1111      C1112   1.405       .  A
C1111      C1115   1.514       .  S
C1112      H1116   1.085       .  S
C1113      F1126   1.384       .  S
C1113      F1127   1.383       .  S
C1113      F1128   1.380       .  S
C1115      F1123   1.384       .  S
C1115      F1124   1.379       .  S
C1115      F1125   1.382       .  S
C1129      C1130   1.402       .  A
C1129      C1134   1.407       .  A
C1129      H1139   1.085       .  S
C1130      C1131   1.417       .  A
C1130      C1135   1.485       .  S
C1131      C1132   1.406       .  A
C1131      C1136   1.520       .  S
C1132      C1133   1.402       .  A
C1132      H1137   1.084       .  S
C1133      C1134   1.419       .  A
C1134      C1138   1.519       .  S
C1135      C1140   1.416       .  A
C1135      C1144   1.397       .  A
C1136      F1152   1.382       .  S
C1136      F1153   1.382       .  S
C1136      F1154   1.384       .  S
C1138      F1149   1.384       .  S
C1138      F1150   1.383       .  S
C1138      F1151   1.382       .  S
C1140      C1141   1.411       .  A
C1140      C1145   1.518       .  S
C1141      C1142   1.405       .  A
C1141      H1146   1.083       .  S
C1142      C1143   1.425       .  A
C1143      C1144   1.402       .  A
C1143      C1147   1.522       .  S
C1144      H1148   1.085       .  S
C1145      F1158   1.384       .  S
C1145      F1159   1.382       .  S
C1145      F1160   1.382       .  S
C1147      F1155   1.384       .  S
C1147      F1156   1.380       .  S
C1147      F1157   1.383       .  S
C1161      C1162   1.403       .  A
C1161      C1166   1.409       .  A
C1161      H1171   1.083       .  S
C1162      C1163   1.418       .  A
C1162      C1167   1.486       .  S
C1163      C1164   1.407       .  A
C1163      C1168   1.520       .  S
C1164      C1165   1.401       .  A
C1164      H1169   1.083       .  S
C1165      C1166   1.414       .  A
C1166      C1170   1.516       .  S
C1167      C1172   1.414       .  A
C1167      C1176   1.403       .  A
C1168      F1184   1.382       .  S
C1168      F1185   1.382       .  S
C1168      F1186   1.385       .  S
C1170      F1181   1.385       .  S
C1170      F1182   1.382       .  S
C1170      F1183   1.384       .  S
C1172      C1173   1.406       .  A
C1172      C1177   1.520       .  S
C1173      C1174   1.405       .  A
C1173      H1178   1.083       .  S
C1174      C1175   1.418       .  A
C1175      C1176   1.408       .  A
C1175      C1179   1.519       .  S
C1176      H1180   1.085       .  S
C1177      F1190   1.384       .  S
C1177      F1191   1.382       .  S
C1177      F1192   1.382       .  S
C1179      F1187   1.382       .  S
C1179      F1188   1.380       .  S
C1179      F1189   1.384       .  S
C1193      C1194   1.399       .  A
C1193      C1198   1.408       .  A
C1193      H1203   1.083       .  S
C1194      C1195   1.413       .  A
C1194      C1199   1.481       .  S
C1195      C1196   1.405       .  A
C1195      C1200   1.521       .  S
C1196      C1197   1.409       .  A
C1196      H1201   1.082       .  S
C1197      C1198   1.427       .  A
C1198      C1202   1.521       .  S
C1199      C1204   1.416       .  A
C1199      C1208   1.400       .  A
C1200      F1216   1.382       .  S
C1200      F1217   1.382       .  S
C1200      F1218   1.385       .  S
C1202      F1213   1.385       .  S
C1202      F1214   1.383       .  S
C1202      F1215   1.383       .  S
C1204      C1205   1.408       .  A
C1204      C1209   1.518       .  S
C1205      C1206   1.402       .  A
C1205      H1210   1.083       .  S
C1206      C1207   1.417       .  A
C1207      C1208   1.401       .  A
C1207      C1211   1.519       .  S
C1208      H1212   1.084       .  S
C1209      F1222   1.384       .  S
C1209      F1223   1.382       .  S
C1209      F1224   1.382       .  S
C1211      F1219   1.385       .  S
C1211      F1220   1.383       .  S
C1211      F1221   1.382       .  S
C1225      C1226   1.400       .  A
C1225      C1230   1.407       .  A
C1225      H1235   1.083       .  S
C1226      C1227   1.414       .  A
C1226      C1231   1.484       .  S
C1227      C1228   1.407       .  A
C1227      C1232   1.519       .  S
C1228      C1229   1.409       .  A
C1228      H1233   1.083       .  S
C1229      C1230   1.425       .  A
C1230      C1234   1.521       .  S
C1231      C1236   1.419       .  A
C1231      C1240   1.400       .  A
C1232      F1248   1.382       .  S
C1232      F1249   1.383       .  S
C1232      F1250   1.385       .  S
C1234      F1245   1.385       .  S
C1234      F1246   1.383       .  S
C1234      F1247   1.384       .  S
C1236      C1237   1.407       .  A
C1236      C1241   1.518       .  S
C1237      C1238   1.404       .  A
C1237      H1242   1.084       .  S
C1238      C1239   1.422       .  A
C1239      C1240   1.401       .  A
C1239      C1243   1.522       .  S
C1240      H1244   1.085       .  S
C1241      F1254   1.384       .  S
C1241      F1255   1.383       .  S
C1241      F1256   1.382       .  S
C1243      F1251   1.382       .  S
C1243      F1252   1.381       .  S
C1243      F1253   1.384       .  S
C1257      C1258   1.403       .  A
C1257      C1262   1.409       .  A
C1257      H1267   1.083       .  S
C1258      C1259   1.416       .  A
C1258      C1263   1.487       .  S
C1259      C1260   1.407       .  A
C1259      C1264   1.520       .  S
C1260      C1261   1.403       .  A
C1260      H1265   1.083       .  S
C1261      C1262   1.415       .  A
C1262      C1266   1.515       .  S
C1263      C1268   1.414       .  A
C1263      C1272   1.402       .  A
C1264      F1280   1.382       .  S
C1264      F1281   1.382       .  S
C1264      F1282   1.384       .  S
C1266      F1277   1.380       .  S
C1266      F1278   1.384       .  S
C1266      F1279   1.383       .  S
C1268      C1269   1.409       .  A
C1268      C1273   1.519       .  S
C1269      C1270   1.407       .  A
C1269      H1274   1.083       .  S
C1270      C1271   1.423       .  A
C1271      C1272   1.409       .  A
C1271      C1275   1.521       .  S
C1272      H1276   1.083       .  S
C1273      F1286   1.384       .  S
C1273      F1287   1.383       .  S
C1273      F1288   1.382       .  S
C1275      F1283   1.385       .  S
C1275      F1284   1.384       .  S
C1275      F1285   1.382       .  S
C1289      C1290   1.404       .  A
C1289      C1294   1.406       .  A
C1289      H1299   1.083       .  S
C1290      C1291   1.416       .  A
C1290      C1295   1.487       .  S
C1291      C1292   1.411       .  A
C1291      C1296   1.518       .  S
C1292      C1293   1.404       .  A
C1292      H1297   1.083       .  S
C1293      C1294   1.414       .  A
C1294      C1298   1.518       .  S
C1295      C1300   1.415       .  A
C1295      C1304   1.403       .  A
C1296      F1312   1.382       .  S
C1296      F1313   1.382       .  S
C1296      F1314   1.384       .  S
C1298      F1309   1.382       .  S
C1298      F1310   1.385       .  S
C1298      F1311   1.384       .  S
C1300      C1301   1.405       .  A
C1300      C1305   1.521       .  S
C1301      C1302   1.406       .  A
C1301      H1306   1.083       .  S
C1302      C1303   1.420       .  A
C1303      C1304   1.409       .  A
C1303      C1307   1.517       .  S
C1304      H1308   1.085       .  S
C1305      F1318   1.385       .  S
C1305      F1319   1.382       .  S
C1305      F1320   1.381       .  S
C1307      F1315   1.384       .  S
C1307      F1316   1.380       .  S
C1307      F1317   1.381       .  S
C1321      C1322   1.399       .  A
C1321      C1326   1.411       .  A
C1321      H1331   1.083       .  S
C1322      C1323   1.412       .  A
C1322      C1327   1.485       .  S
C1323      C1324   1.406       .  A
C1323      C1328   1.521       .  S
C1324      C1325   1.412       .  A
C1324      H1329   1.082       .  S
C1325      C1326   1.430       .  A
C1326      C1330   1.522       .  S
C1327      C1332   1.415       .  A
C1327      C1336   1.398       .  A
C1328      F1344   1.382       .  S
C1328      F1345   1.382       .  S
C1328      F1346   1.385       .  S
C1330      F1341   1.385       .  S
C1330      F1342   1.384       .  S
C1330      F1343   1.383       .  S
C1332      C1333   1.411       .  A
C1332      C1337   1.518       .  S
C1333      C1334   1.406       .  A
C1333      H1338   1.082       .  S
C1334      C1335   1.426       .  A
C1335      C1336   1.403       .  A
C1335      C1339   1.523       .  S
C1336      H1340   1.085       .  S
C1337      F1350   1.383       .  S
C1337      F1351   1.383       .  S
C1337      F1352   1.382       .  S
C1339      F1347   1.384       .  S
C1339      F1348   1.380       .  S
C1339      F1349   1.383       .  S
C1353      C1354   1.401       .  A
C1353      C1358   1.408       .  A
C1353      H1363   1.083       .  S
C1354      C1355   1.415       .  A
C1354      C1359   1.484       .  S
C1355      C1356   1.406       .  A
C1355      C1360   1.520       .  S
C1356      C1357   1.405       .  A
C1356      H1361   1.083       .  S
C1357      C1358   1.418       .  A
C1358      C1362   1.517       .  S
C1359      C1364   1.415       .  A
C1359      C1368   1.400       .  A
C1360      F1376   1.382       .  S
C1360      F1377   1.382       .  S
C1360      F1378   1.385       .  S
C1362      F1373   1.377       .  S
C1362      F1374   1.385       .  S
C1362      F1375   1.383       .  S
C1364      C1365   1.410       .  A
C1364      C1369   1.519       .  S
C1365      C1366   1.406       .  A
C1365      H1370   1.083       .  S
C1366      C1367   1.420       .  A
C1367      C1368   1.406       .  A
C1367      C1371   1.520       .  S
C1368      H1372   1.084       .  S
C1369      F1382   1.384       .  S
C1369      F1383   1.382       .  S
C1369      F1384   1.382       .  S
C1371      F1379   1.385       .  S
C1371      F1380   1.384       .  S
C1371      F1381   1.382       .  S
C1385      C1386   1.401       .  A
C1385      C1390   1.408       .  A
C1385      H1395   1.084       .  S
C1386      C1387   1.412   1_455  A
C1386      C2967   1.483       .  S
C1387      C1388   1.403       .  A
C1387      C1392   1.520       .  S
C1388      C1389   1.406   1_655  A
C1388      H1393   1.080       .  S
C1389      C1390   1.424       .  A
C1390      C1394   1.516       .  S
C1391      C1396   1.412       .  A
C1391      C1400   1.400   1_455  A
C1391      C2962   1.481   1_554  S
C1392      F1410   1.385       .  S
C1392      F2984   1.383       .  S
C1392      F2985   1.380       .  S
C1394      F1405   1.383       .  S
C1394      F1406   1.384       .  S
C1394      F1407   1.379       .  S
C1396      C1397   1.406       .  A
C1396      C1401   1.520       .  S
C1397      C1398   1.406       .  A
C1397      H1402   1.080       .  S
C1398      C1399   1.421   1_455  A
C1399      C1400   1.406       .  A
C1399      C1403   1.516       .  S
C1400      H1404   1.085       .  S
C1401      F1414   1.384       .  S
C1401      F1415   1.383       .  S
C1401      F1416   1.381       .  S
C1403      F1411   1.384       .  S
C1403      F1412   1.380       .  S
C1403      F1413   1.383       .  S
F1408      C2968   1.383   1_554  S
F1409      C2968   1.380   1_554  S
C1417      C1418   1.400       .  A
C1417      C1422   1.405       .  A
C1417      H1427   1.083       .  S
C1418      C1419   1.416       .  A
C1418      C1423   1.483       .  S
C1419      C1420   1.407       .  A
C1419      C1424   1.518       .  S
C1420      C1421   1.402       .  A
C1420      H1425   1.083       .  S
C1421      C1422   1.418       .  A
C1422      C1426   1.521       .  S
C1423      C1428   1.416       .  A
C1423      C1432   1.403       .  A
C1424      F1440   1.382       .  S
C1424      F1441   1.383       .  S
C1424      F1442   1.384       .  S
C1426      F1437   1.381       .  S
C1426      F1438   1.385       .  S
C1426      F1439   1.382       .  S
C1428      C1429   1.405       .  A
C1428      C1433   1.521       .  S
C1429      C1430   1.403       .  A
C1429      H1434   1.083       .  S
C1430      C1431   1.417       .  A
C1431      C1432   1.408       .  A
C1431      C1435   1.518       .  S
C1432      H1436   1.083       .  S
C1433      F1446   1.384       .  S
C1433      F1447   1.382       .  S
C1433      F1448   1.382       .  S
C1435      F1443   1.384       .  S
C1435      F1444   1.382       .  S
C1435      F1445   1.385       .  S
C1449      C1450   1.404       .  A
C1449      C1454   1.410       .  A
C1449      H1459   1.083       .  S
C1450      C1451   1.417       .  A
C1450      C1455   1.489       .  S
C1451      C1452   1.405       .  A
C1451      C1456   1.520       .  S
C1452      C1453   1.400       .  A
C1452      H1457   1.081       .  S
C1453      C1454   1.416       .  A
C1454      C1458   1.517       .  S
C1455      C1460   1.414       .  A
C1455      C1464   1.400       .  A
C1456      F1472   1.381       .  S
C1456      F1473   1.383       .  S
C1456      F1474   1.385       .  S
C1458      F1469   1.384       .  S
C1458      F1470   1.383       .  S
C1458      F1471   1.381       .  S
C1460      C1461   1.411       .  A
C1460      C1465   1.519       .  S
C1461      C1462   1.410       .  A
C1461      H1466   1.083       .  S
C1462      C1463   1.426       .  A
C1463      C1464   1.407       .  A
C1463      C1467   1.522       .  S
C1464      H1468   1.083       .  S
C1465      F1478   1.384       .  S
C1465      F1479   1.382       .  S
C1465      F1480   1.383       .  S
C1467      F1475   1.383       .  S
C1467      F1476   1.383       .  S
C1467      F1477   1.384       .  S
C1481      C1482   1.401       .  A
C1481      C1486   1.404       .  A
C1481      H1491   1.085       .  S
C1482      C1483   1.416       .  A
C1482      C1487   1.487       .  S
C1483      C1484   1.409       .  A
C1483      C1488   1.518       .  S
C1484      C1485   1.403       .  A
C1484      H1489   1.083       .  S
C1485      C1486   1.419       .  A
C1486      C1490   1.519       .  S
C1487      C1492   1.418       .  A
C1487      C1496   1.403       .  A
C1488      F1504   1.382       .  S
C1488      F1505   1.383       .  S
C1488      F1506   1.385       .  S
C1490      F1501   1.383       .  S
C1490      F1502   1.384       .  S
C1490      F1503   1.381       .  S
C1492      C1493   1.407       .  A
C1492      C1497   1.520       .  S
C1493      C1494   1.402       .  A
C1493      H1498   1.083       .  S
C1494      C1495   1.417       .  A
C1495      C1496   1.409       .  A
C1495      C1499   1.518       .  S
C1496      H1500   1.083       .  S
C1497      F1510   1.384       .  S
C1497      F1511   1.382       .  S
C1497      F1512   1.383       .  S
C1499      F1507   1.382       .  S
C1499      F1508   1.384       .  S
C1499      F1509   1.384       .  S
C1513      C1514   1.403       .  A
C1513      C1518   1.408       .  A
C1513      H1523   1.085       .  S
C1514      C1515   1.416       .  A
C1514      C1519   1.490       .  S
C1515      C1516   1.406       .  A
C1515      C1520   1.520       .  S
C1516      C1517   1.404       .  A
C1516      H1521   1.083       .  S
C1517      C1518   1.419       .  A
C1518      C1522   1.518       .  S
C1519      C1524   1.414       .  A
C1519      C1528   1.400       .  A
C1520      F1536   1.381       .  S
C1520      F1537   1.382       .  S
C1520      F1538   1.385       .  S
C1522      F1533   1.384       .  S
C1522      F1534   1.380       .  S
C1522      F1535   1.382       .  S
C1524      C1525   1.410       .  A
C1524      C1529   1.520       .  S
C1525      C1526   1.412       .  A
C1525      H1530   1.082       .  S
C1526      C1527   1.429       .  A
C1527      C1528   1.408       .  A
C1527      C1531   1.523       .  S
C1528      H1532   1.083       .  S
C1529      F1542   1.384       .  S
C1529      F1543   1.382       .  S
C1529      F1544   1.382       .  S
C1531      F1539   1.383       .  S
C1531      F1540   1.384       .  S
C1531      F1541   1.385       .  S
C1545      C1546   1.402       .  A
C1545      C1550   1.407       .  A
C1545      H1555   1.085       .  S
C1546      C1547   1.414       .  A
C1546      C1551   1.482       .  S
C1547      C1548   1.404       .  A
C1547      C1552   1.522       .  S
C1548      C1549   1.405       .  A
C1548      H1553   1.078       .  S
C1549      C1550   1.419       .  A
C1550      C1554   1.514       .  S
C1551      C1556   1.413       .  A
C1551      C1560   1.400       .  A
C1552      F1568   1.383       .  S
C1552      F1569   1.380       .  S
C1552      F1570   1.384       .  S
C1554      F1565   1.382       .  S
C1554      F1566   1.384       .  S
C1554      F1567   1.381       .  S
C1556      C1557   1.406       .  A
C1556      C1561   1.520       .  S
C1557      C1558   1.406       .  A
C1557      H1562   1.079       .  S
C1558      C1559   1.420       .  A
C1559      C1560   1.405       .  A
C1559      C1563   1.513       .  S
C1560      H1564   1.085       .  S
C1561      F1574   1.384       .  S
C1561      F1575   1.384       .  S
C1561      F1576   1.380       .  S
C1563      F1571   1.384       .  S
C1563      F1572   1.381       .  S
C1563      F1573   1.382       .  S
N1577      C1581   1.357       .  A
N1577      C1578   1.361       .  A
N1577      C3125   1.446       .  S
C1578      C1579   1.383       .  A
C1578      C3093   1.481       .  S
C1579      C1580   1.375       .  A
C1579      H1582   1.082       .  S
C1580      C1581   1.381       .  A
C1580      H1583   1.082       .  S
C1581      C3061   1.478       .  S
N1584      C1588   1.362       .  A
N1584      C1585   1.359       .  A
N1584      C3134   1.449       .  S
C1585      C1586   1.381       .  A
C1585      C2997   1.480       .  S
C1586      C1587   1.374       .  A
C1586      H1589   1.082       .  S
C1587      C1588   1.382       .  A
C1587      H1590   1.082       .  S
C1588      C3029   1.483       .  S
N1591      C1595   1.362   1_455  A
N1591      C1592   1.363       .  A
N1591      C2965   1.447       .  S
C1592      C1593   1.381       .  A
C1592      C2910   1.485       .  S
C1593      C1594   1.371   1_455  A
C1593      H1596   1.080       .  S
C1594      C1595   1.380       .  A
C1594      H1597   1.081       .  S
C1595      C2933   1.487       .  S
N1598      C1602   1.361       .  A
N1598      C1599   1.363   1_455  A
N1598      C2974   1.446       .  S
C1599      C1600   1.381       .  A
C1599      C2878   1.484       .  S
C1600      C1601   1.372   1_655  A
C1600      H1603   1.081       .  S
C1601      C1602   1.378       .  A
C1601      H1604   1.079       .  S
C1602      C2837   1.482       .  S
Zn1605     O1609   1.962       .  S
Zn1605     O1610   2.047       .  S
Zn1605     O1614   2.030       .  S
Zn1605     O1621   2.015       .  S
Zn1606     O1609   1.970       .  S
Zn1606     O1611   2.023       .  S
Zn1606     O1613   2.041       .  S
Zn1606     O1617   2.026       .  S
Zn1607     O1609   1.962       .  S
Zn1607     O1612   2.014       .  S
Zn1607     O1615   2.008       .  S
Zn1607     O1618   2.025       .  S
Zn1608     O1609   1.975       .  S
Zn1608     O1616   2.047       .  S
Zn1608     O1619   2.032       .  S
Zn1608     O1620   2.043       .  S
O1610      C1622   1.277   1_556  A
O1611      C1623   1.275       .  A
O1612      C1624   1.271       .  A
O1613      C1622   1.275   1_556  A
O1614      C1624   1.276       .  A
O1615      C1623   1.271       .  A
O1616      C1625   1.276       .  A
O1617      C1626   1.273       .  A
O1618      C1625   1.273       .  A
O1619      C1626   1.277       .  A
O1620      C1627   1.278       .  A
O1621      C1627   1.273       .  A
C1623      C2805   1.493       .  S
C1624      C2773   1.497       .  S
C1625      C1647   1.480       .  S
C1626      C2901   1.505       .  S
C1627      C3038   1.496       .  S
Zn1628     O1632   1.969       .  S
Zn1628     O1633   2.024       .  S
Zn1628     O1637   2.036       .  S
Zn1628     O1644   2.024       .  S
Zn1629     O1632   1.970       .  S
Zn1629     O1634   2.026       .  S
Zn1629     O1636   2.025       .  S
Zn1629     O1640   2.038       .  S
Zn1630     O1632   1.969       .  S
Zn1630     O1635   2.034       .  S
Zn1630     O1638   2.026       .  S
Zn1630     O1641   2.026       .  S
Zn1631     O1632   1.974       .  S
Zn1631     O1639   2.032       .  S
Zn1631     O1642   2.044       .  S
Zn1631     O1643   2.030       .  S
O1633      C1645   1.274       .  A
O1634      C1646   1.274       .  A
O1635      C1647   1.274       .  A
O1636      C1645   1.274       .  A
O1637      C1647   1.275       .  A
O1638      C1646   1.274       .  A
O1639      C1648   1.276       .  A
O1640      C1649   1.275       .  A
O1641      C1648   1.274       .  A
O1642      C1649   1.276       .  A
O1643      C1650   1.274       .  A
O1644      C1650   1.274       .  A
C1645      C2709   1.472       .  S
C1646      C3070   1.478       .  S
C1648      C2846   1.487       .  S
C1650      C2741   1.478       .  S
N1651      C1655   1.359       .  A
N1651      C1652   1.362       .  A
N1651      C2677   1.450       .  S
C1652      C1653   1.383       .  A
C1652      C2718   1.484       .  S
C1653      C1654   1.372       .  A
C1653      H1656   1.081       .  S
C1654      C1655   1.381       .  A
C1654      H1657   1.080       .  S
C1655      C2645   1.481       .  S
N1658      C1662   1.360       .  A
N1658      C1659   1.363       .  A
N1658      C2686   1.452       .  S
C1659      C1660   1.382       .  A
C1659      C2622   1.480       .  S
C1660      C1661   1.370       .  A
C1660      H1663   1.082       .  S
C1661      C1662   1.381       .  A
C1661      H1664   1.080       .  S
C1662      C2782   1.480       .  S
Zn1665     O1669   1.964       .  S
Zn1665     O1670   2.008       .  S
Zn1665     O1674   2.034       .  S
Zn1665     O1681   2.017       .  S
Zn1666     O1669   1.976       .  S
Zn1666     O1671   2.033       .  S
Zn1666     O1673   2.029       .  S
Zn1666     O1677   2.043       .  S
Zn1667     O1669   1.969       .  S
Zn1667     O1672   2.041       .  S
Zn1667     O1675   2.016       .  S
Zn1667     O1678   2.021       .  S
Zn1668     O1669   1.966       .  S
Zn1668     O1676   2.016       .  S
Zn1668     O1679   2.039       .  S
Zn1668     O1680   2.030       .  S
O1670      C1682   1.272       .  A
O1671      C1683   1.275       .  A
O1672      C1684   1.274       .  A
O1673      C1682   1.275       .  A
O1674      C1684   1.273       .  A
O1675      C1683   1.273       .  A
O1676      C1685   1.274       .  A
O1677      C1686   1.275       .  A
O1678      C1685   1.273       .  A
O1679      C1686   1.274       .  A
O1680      C1687   1.275       .  A
O1681      C1687   1.273       .  A
C1682      C2942   1.480       .  S
C1683      C2581   1.477       .  S
C1684      C1709   1.473       .  S
C1685      C2613   1.472       .  S
C1687      C2558   1.472       .  S
Zn1688     O1692   1.968       .  S
Zn1688     O1693   2.017       .  S
Zn1688     O1697   2.034       .  S
Zn1688     O1704   2.019       .  S
Zn1689     O1692   1.972       .  S
Zn1689     O1694   2.018       .  S
Zn1689     O1696   2.013       .  S
Zn1689     O1700   2.035       .  S
Zn1690     O1692   1.971       .  S
Zn1690     O1695   2.045       .  S
Zn1690     O1698   2.030       .  S
Zn1690     O1701   2.024       .  S
Zn1691     O1692   1.964       .  S
Zn1691     O1699   2.024       .  S
Zn1691     O1702   2.040       .  S
Zn1691     O1703   2.017       .  S
O1693      C1705   1.274       .  A
O1694      C1706   1.274       .  A
O1695      C1707   1.274       .  A
O1696      C1705   1.272       .  A
O1697      C1707   1.273       .  A
O1698      C1706   1.276       .  A
O1699      C1708   1.275       .  A
O1700      C1709   1.273       .  A
O1701      C1708   1.274       .  A
O1702      C1709   1.274       .  A
O1703      C1710   1.274       .  A
O1704      C1710   1.273       .  A
C1705      C2654   1.476       .  S
C1706      C2485   1.474       .  S
C1708      C2869   1.476       .  S
C1710      C2517   1.479       .  S
N1711      C1715   1.358       .  A
N1711      C1712   1.362       .  A
N1711      C2453   1.446       .  S
C1712      C1713   1.385       .  A
C1712      C2494   1.488       .  S
C1713      C1714   1.374       .  A
C1713      H1716   1.082       .  S
C1714      C1715   1.381       .  A
C1714      H1717   1.082       .  S
C1715      C2421   1.483       .  S
N1718      C1722   1.361       .  A
N1718      C1719   1.363       .  A
N1718      C2462   1.448       .  S
C1719      C1720   1.382       .  A
C1719      C2549   1.486       .  S
C1720      C1721   1.373       .  A
C1720      H1723   1.080       .  S
C1721      C1722   1.380       .  A
C1721      H1724   1.082       .  S
C1722      C2389   1.484       .  S
N1725      C1729   1.359   1_545  A
N1725      C1726   1.362       .  A
N1725      C2357   1.445       .  S
C1726      C1727   1.382       .  A
C1726      C2334   1.489       .  S
C1727      C1728   1.374   1_545  A
C1727      H1730   1.079       .  S
C1728      C1729   1.381       .  A
C1728      H1731   1.079       .  S
C1729      C2590   1.487       .  S
N1732      C1736   1.359       .  A
N1732      C1733   1.360   1_565  A
N1732      C2366   1.445       .  S
C1733      C1734   1.382       .  A
C1733      C2302   1.483       .  S
C1734      C1735   1.373   1_545  A
C1734      H1737   1.080       .  S
C1735      C1736   1.379       .  A
C1735      H1738   1.081       .  S
C1736      C2526   1.480       .  S
Zn1739     O1743   1.966       .  S
Zn1739     O1744   2.009       .  S
Zn1739     O1748   2.025       .  S
Zn1739     O1755   2.045       .  S
Zn1740     O1743   1.983       .  S
Zn1740     O1745   2.052       .  S
Zn1740     O1747   2.045       .  S
Zn1740     O1751   2.052       .  S
Zn1741     O1743   1.966       .  S
Zn1741     O1746   2.027       .  S
Zn1741     O1749   2.035       .  S
Zn1741     O1752   2.016       .  S
Zn1742     O1743   1.967       .  S
Zn1742     O1750   2.025       .  S
Zn1742     O1753   2.012       .  S
Zn1742     O1754   2.042       .  S
O1744      C1756   1.275       .  A
O1745      C1757   1.276   1_556  A
O1746      C1758   1.276       .  A
O1747      C1756   1.276       .  A
O1748      C1758   1.273       .  A
O1749      C1757   1.274   1_556  A
O1750      C1759   1.274       .  A
O1751      C1760   1.279       .  A
O1752      C1759   1.273       .  A
O1753      C1760   1.271       .  A
O1754      C1761   1.274       .  A
O1755      C1761   1.274       .  A
C1756      C2261   1.492       .  S
C1758      C2398   1.492       .  S
C1759      C2229   1.481       .  S
C1760      C2325   1.507       .  S
C1761      C1781   1.476       .  S
Zn1762     O1766   1.970       .  S
Zn1762     O1767   2.035       .  S
Zn1762     O1771   2.048       .  S
Zn1762     O1778   2.030       .  S
Zn1763     O1766   1.968       .  S
Zn1763     O1768   2.025       .  S
Zn1763     O1770   2.017       .  S
Zn1763     O1774   2.042       .  S
Zn1764     O1766   1.962       .  S
Zn1764     O1769   2.041       .  S
Zn1764     O1772   2.016       .  S
Zn1764     O1775   2.017       .  S
Zn1765     O1766   1.968       .  S
Zn1765     O1773   2.020       .  S
Zn1765     O1776   2.040       .  S
Zn1765     O1777   2.027       .  S
O1767      C1779   1.277       .  A
O1768      C1780   1.275       .  A
O1769      C1781   1.275       .  A
O1770      C1779   1.272       .  A
O1771      C1781   1.275       .  A
O1772      C1780   1.271       .  A
O1773      C1782   1.275       .  A
O1774      C1783   1.274       .  A
O1775      C1782   1.272       .  A
O1776      C1783   1.274       .  A
O1777      C1784   1.276       .  A
O1778      C1784   1.273       .  A
C1779      C2430   1.500       .  S
C1780      C2197   1.499       .  S
C1782      C2293   1.492       .  S
C1784      C2165   1.505       .  S
N1785      C1789   1.360       .  A
N1785      C1786   1.364       .  A
N1785      C2133   1.446       .  S
C1786      C1787   1.382       .  A
C1786      C2174   1.491       .  S
C1787      C1788   1.372       .  A
C1787      H1790   1.080       .  S
C1788      C1789   1.379       .  A
C1788      H1791   1.079       .  S
C1789      C2101   1.485       .  S
N1792      C1796   1.360       .  A
N1792      C1793   1.362       .  A
N1792      C2142   1.448       .  S
C1793      C1794   1.383       .  A
C1793      C2069   1.485       .  S
C1794      C1795   1.372       .  A
C1794      H1797   1.080       .  S
C1795      C1796   1.378       .  A
C1795      H1798   1.080       .  S
C1796      C2238   1.480       .  S
N1799      C1803   1.361   1_565  A
N1799      C1800   1.362       .  A
N1799      C2046   1.449       .  S
C1800      C1801   1.382       .  A
C1800      C2814   1.480       .  S
C1801      C1802   1.372   1_565  A
C1801      H1804   1.082       .  S
C1802      C1803   1.380       .  A
C1802      H1805   1.081       .  S
C1803      C2005   1.481       .  S
N1806      C1810   1.359   1_565  A
N1806      C1807   1.362       .  A
N1806      C2037   1.448       .  S
C1807      C1808   1.381       .  A
C1807      C2750   1.482       .  S
C1808      C1809   1.374   1_565  A
C1808      H1811   1.081       .  S
C1809      C1810   1.381       .  A
C1809      H1812   1.081       .  S
C1810      C1973   1.483       .  S
N1813      C1817   1.362   1_655  A
N1813      C1814   1.359       .  A
N1813      C1941   1.447       .  S
C1814      C1815   1.380       .  A
C1814      C2270   1.481       .  S
C1815      C1816   1.373   1_655  A
C1815      H1818   1.081       .  S
C1816      C1817   1.383       .  A
C1816      H1819   1.081       .  S
C1817      C1918   1.485       .  S
N1820      C1824   1.360   1_455  A
N1820      C1821   1.359       .  A
N1820      C1950   1.449       .  S
C1821      C1822   1.380       .  A
C1821      C1877   1.479       .  S
C1822      C1823   1.372   1_455  A
C1822      H1825   1.080       .  S
C1823      C1824   1.381       .  A
C1823      H1826   1.081       .  S
C1824      C2206   1.479       .  S
Zn1827     O1831   1.965       .  S
Zn1827     O1832   2.021       .  S
Zn1827     O1836   2.034       .  S
Zn1827     O1843   2.014       .  S
Zn1828     O1831   1.967       .  S
Zn1828     O1833   2.034       .  S
Zn1828     O1835   2.016       .  S
Zn1828     O1839   2.027       .  S
Zn1829     O1831   1.958       .  S
Zn1829     O1834   2.047       .  S
Zn1829     O1837   2.015       .  S
Zn1829     O1840   2.016       .  S
Zn1830     O1831   1.972       .  S
Zn1830     O1838   2.026       .  S
Zn1830     O1841   2.045       .  S
Zn1830     O1842   2.028       .  S
O1832      C1844   1.273       .  A
O1833      C1845   1.276       .  A
O1834      C1846   1.276       .  A
O1835      C1844   1.274       .  A
O1836      C1846   1.274       .  A
O1837      C1845   1.272       .  A
O1838      C1847   1.273       .  A
O1839      C1848   1.274       .  A
O1840      C1847   1.275       .  A
O1841      C1848   1.276       .  A
O1842      C1849   1.276       .  A
O1843      C1849   1.271       .  A
C1844      C3006   1.478       .  S
C1845      C1909   1.497       .  S
C1846      C1867   1.482       .  S
C1847      C2014   1.491       .  S
C1849      C2078   1.501       .  S
Zn1850     O1854   1.966       .  S
Zn1850     O1855   2.043       .  S
Zn1850     O1859   2.024       .  S
Zn1850     O1866   2.026       .  S
Zn1851     O1854   1.974       .  S
Zn1851     O1856   2.023       .  S
Zn1851     O1858   2.040       .  S
Zn1851     O1862   2.036       .  S
Zn1852     O1854   1.975       .  S
Zn1852     O1857   2.033       .  S
Zn1852     O1860   2.033       .  S
Zn1852     O1863   2.046       .  S
Zn1853     O1854   1.963       .  S
Zn1853     O1861   2.028       .  S
Zn1853     O1864   2.011       .  S
Zn1853     O1865   2.010       .  S
O1855      C1867   1.275       .  A
O1856      C1868   1.274       .  A
O1857      C1869   1.275       .  A
O1858      C1867   1.276       .  A
O1859      C1869   1.275       .  A
O1860      C1868   1.277       .  A
O1861      C1870   1.274       .  A
O1862      C1871   1.276       .  A
O1863      C1870   1.275       .  A
O1864      C1871   1.271       .  A
O1865      C1872   1.271       .  A
O1866      C1872   1.275       .  A
C1868      C2110   1.483       .  S
C1869      C1982   1.478       .  S
C1871      C3102   1.500       .  S
C1872      C1886   1.477       .  S
C1873      C1874   1.400       .  A
C1873      C1878   1.403       .  A
C1873      H1883   1.083       .  S
C1874      C1875   1.415       .  A
C1874      C1879   1.480       .  S
C1875      C1876   1.407       .  A
C1875      C1880   1.518       .  S
C1876      C1877   1.403       .  A
C1876      H1881   1.083       .  S
C1877      C1878   1.418       .  A
C1878      C1882   1.521       .  S
C1879      C1884   1.416       .  A
C1879      C1888   1.402       .  A
C1880      F1896   1.382       .  S
C1880      F1897   1.382       .  S
C1880      F1898   1.385       .  S
C1882      F1893   1.380       .  S
C1882      F1894   1.385       .  S
C1882      F1895   1.383       .  S
C1884      C1885   1.403       .  A
C1884      C1889   1.521       .  S
C1885      C1886   1.402       .  A
C1885      H1890   1.084       .  S
C1886      C1887   1.419       .  A
C1887      C1888   1.408       .  A
C1887      C1891   1.519       .  S
C1888      H1892   1.083       .  S
C1889      F1902   1.384       .  S
C1889      F1903   1.382       .  S
C1889      F1904   1.382       .  S
C1891      F1899   1.385       .  S
C1891      F1900   1.383       .  S
C1891      F1901   1.382       .  S
C1905      C1906   1.398       .  A
C1905      C1910   1.406       .  A
C1905      H1915   1.083       .  S
C1906      C1907   1.412       .  A
C1906      C1911   1.485       .  S
C1907      C1908   1.410       .  A
C1907      C1912   1.519       .  S
C1908      C1909   1.412       .  A
C1908      H1913   1.082       .  S
C1909      C1910   1.428       .  A
C1910      C1914   1.522       .  S
C1911      C1916   1.415       .  A
C1911      C1920   1.402       .  A
C1912      F1928   1.382       .  S
C1912      F1929   1.382       .  S
C1912      F1930   1.384       .  S
C1914      F1925   1.384       .  S
C1914      F1926   1.383       .  S
C1914      F1927   1.384       .  S
C1916      C1917   1.404       .  A
C1916      C1921   1.521       .  S
C1917      C1918   1.406       .  A
C1917      H1922   1.083       .  S
C1918      C1919   1.420       .  A
C1919      C1920   1.408       .  A
C1919      C1923   1.518       .  S
C1920      H1924   1.084       .  S
C1921      F1934   1.385       .  S
C1921      F1935   1.382       .  S
C1921      F1936   1.382       .  S
C1923      F1931   1.384       .  S
C1923      F1932   1.380       .  S
C1923      F1933   1.381       .  S
C1937      C1938   1.401   1_455  A
C1937      C1942   1.406       .  A
C1937      H1947   1.085       .  S
C1938      C1939   1.414       .  A
C1939      C1940   1.406       .  A
C1939      C1944   1.520       .  S
C1940      C1941   1.406       .  A
C1940      H1945   1.080       .  S
C1941      C1942   1.421   1_655  A
C1942      C1946   1.517       .  S
C1943      C1948   1.413       .  A
C1943      C1952   1.401   1_455  A
C1944      F1962   1.384       .  S
C1946      F1957   1.384       .  S
C1946      F1958   1.381       .  S
C1946      F1959   1.383       .  S
C1948      C1949   1.405       .  A
C1948      C1953   1.520       .  S
C1949      C1950   1.407       .  A
C1949      H1954   1.080       .  S
C1950      C1951   1.420   1_455  A
C1951      C1952   1.406       .  A
C1951      C1955   1.515       .  S
C1952      H1956   1.085       .  S
C1953      F1966   1.385       .  S
C1953      F1967   1.383       .  S
C1953      F1968   1.380       .  S
C1955      F1963   1.384       .  S
C1955      F1964   1.381       .  S
C1955      F1965   1.383       .  S
C1969      C1970   1.402       .  A
C1969      C1974   1.406       .  A
C1969      H1979   1.083       .  S
C1970      C1971   1.417       .  A
C1970      C1975   1.486       .  S
C1971      C1972   1.410       .  A
C1971      C1976   1.519       .  S
C1972      C1973   1.403       .  A
C1972      H1977   1.083       .  S
C1973      C1974   1.419       .  A
C1974      C1978   1.521       .  S
C1975      C1980   1.418       .  A
C1975      C1984   1.403       .  A
C1976      F1992   1.382       .  S
C1976      F1993   1.381       .  S
C1976      F1994   1.385       .  S
C1978      F1989   1.385       .  S
C1978      F1990   1.381       .  S
C1978      F1991   1.381       .  S
C1980      C1981   1.411       .  A
C1980      C1985   1.520       .  S
C1981      C1982   1.404       .  A
C1981      H1986   1.083       .  S
C1982      C1983   1.415       .  A
C1983      C1984   1.406       .  A
C1983      C1987   1.518       .  S
C1984      H1988   1.083       .  S
C1985      F1998   1.384       .  S
C1985      F1999   1.382       .  S
C1985      F2000   1.381       .  S
C1987      F1995   1.382       .  S
C1987      F1996   1.384       .  S
C1987      F1997   1.385       .  S
C2001      C2002   1.401       .  A
C2001      C2006   1.407       .  A
C2001      H2011   1.083       .  S
C2002      C2003   1.416       .  A
C2002      C2007   1.485       .  S
C2003      C2004   1.406       .  A
C2003      C2008   1.519       .  S
C2004      C2005   1.403       .  A
C2004      H2009   1.083       .  S
C2005      C2006   1.416       .  A
C2006      C2010   1.516       .  S
C2007      C2012   1.414       .  A
C2007      C2016   1.401       .  A
C2008      F2024   1.382       .  S
C2008      F2025   1.383       .  S
C2008      F2026   1.384       .  S
C2010      F2021   1.385       .  S
C2010      F2022   1.378       .  S
C2010      F2023   1.384       .  S
C2012      C2013   1.405       .  A
C2012      C2017   1.521       .  S
C2013      C2014   1.408       .  A
C2013      H2018   1.083       .  S
C2014      C2015   1.424       .  A
C2015      C2016   1.409       .  A
C2015      C2019   1.520       .  S
C2016      H2020   1.083       .  S
C2017      F2030   1.385       .  S
C2017      F2031   1.382       .  S
C2017      F2032   1.382       .  S
C2019      F2027   1.383       .  S
C2019      F2028   1.383       .  S
C2019      F2029   1.385       .  S
C2033      C2034   1.402       .  A
C2033      C2038   1.406       .  A
C2033      H2043   1.084       .  S
C2034      C2035   1.417   1_565  A
C2035      C2036   1.406       .  A
C2035      C2040   1.520       .  S
C2036      C2037   1.404   1_545  A
C2036      H2041   1.078       .  S
C2037      C2038   1.419       .  A
C2038      C2042   1.514       .  S
C2039      C2044   1.417   1_565  A
C2039      C2048   1.402       .  A
C2040      F2056   1.381       .  S
C2040      F2057   1.383       .  S
C2040      F2058   1.385       .  S
C2042      F2053   1.384       .  S
C2042      F2054   1.382       .  S
C2042      F2055   1.380       .  S
C2044      C2045   1.407       .  A
C2044      C2049   1.520       .  S
C2045      C2046   1.406   1_545  A
C2045      H2050   1.081       .  S
C2046      C2047   1.422       .  A
C2047      C2048   1.407       .  A
C2047      C2051   1.516       .  S
C2048      H2052   1.084       .  S
C2049      F2062   1.385       .  S
C2051      F2059   1.383       .  S
C2051      F2060   1.379       .  S
C2051      F2061   1.384       .  S
C2065      C2066   1.398       .  A
C2065      C2070   1.401       .  A
C2065      H2075   1.085       .  S
C2066      C2067   1.415       .  A
C2066      C2071   1.484       .  S
C2067      C2068   1.410       .  A
C2067      C2072   1.518       .  S
C2068      C2069   1.407       .  A
C2068      H2073   1.082       .  S
C2069      C2070   1.423       .  A
C2070      C2074   1.522       .  S
C2071      C2076   1.413       .  A
C2071      C2080   1.399       .  A
C2072      F2088   1.382       .  S
C2072      F2089   1.382       .  S
C2072      F2090   1.384       .  S
C2074      F2085   1.383       .  S
C2074      F2086   1.384       .  S
C2074      F2087   1.380       .  S
C2076      C2077   1.406       .  A
C2076      C2081   1.521       .  S
C2077      C2078   1.411       .  A
C2077      H2082   1.082       .  S
C2078      C2079   1.430       .  A
C2079      C2080   1.409       .  A
C2079      C2083   1.522       .  S
C2080      H2084   1.083       .  S
C2081      F2094   1.384       .  S
C2081      F2095   1.381       .  S
C2081      F2096   1.382       .  S
C2083      F2091   1.383       .  S
C2083      F2092   1.384       .  S
C2083      F2093   1.385       .  S
C2097      C2098   1.400       .  A
C2097      C2102   1.405       .  A
C2097      H2107   1.083       .  S
C2098      C2099   1.417       .  A
C2098      C2103   1.488       .  S
C2099      C2100   1.412       .  A
C2099      C2104   1.518       .  S
C2100      C2101   1.404       .  A
C2100      H2105   1.083       .  S
C2101      C2102   1.419       .  A
C2102      C2106   1.521       .  S
C2103      C2108   1.418       .  A
C2103      C2112   1.403       .  A
C2104      F2120   1.382       .  S
C2104      F2121   1.382       .  S
C2104      F2122   1.384       .  S
C2106      F2117   1.381       .  S
C2106      F2118   1.385       .  S
C2106      F2119   1.382       .  S
C2108      C2109   1.407       .  A
C2108      C2113   1.521       .  S
C2109      C2110   1.403       .  A
C2109      H2114   1.083       .  S
C2110      C2111   1.419       .  A
C2111      C2112   1.410       .  A
C2111      C2115   1.519       .  S
C2112      H2116   1.083       .  S
C2113      F2126   1.385       .  S
C2113      F2127   1.381       .  S
C2113      F2128   1.382       .  S
C2115      F2123   1.385       .  S
C2115      F2124   1.384       .  S
C2115      F2125   1.382       .  S
C2129      C2130   1.400       .  A
C2129      C2134   1.403       .  A
C2129      H2139   1.085       .  S
C2130      C2131   1.414       .  A
C2130      C2135   1.478       .  S
C2131      C2132   1.405       .  A
C2131      C2136   1.521       .  S
C2132      C2133   1.405       .  A
C2132      H2137   1.079       .  S
C2133      C2134   1.419       .  A
C2134      C2138   1.514       .  S
C2135      C2140   1.411       .  A
C2135      C2144   1.400       .  A
C2136      F2152   1.383       .  S
C2136      F2153   1.380       .  S
C2136      F2154   1.385       .  S
C2138      F2149   1.382       .  S
C2138      F2150   1.384       .  S
C2138      F2151   1.380       .  S
C2140      C2141   1.403       .  A
C2140      C2145   1.521       .  S
C2141      C2142   1.407       .  A
C2141      H2146   1.077       .  S
C2142      C2143   1.422       .  A
C2143      C2144   1.404       .  A
C2143      C2147   1.515       .  S
C2144      H2148   1.085       .  S
C2145      F2158   1.385       .  S
C2145      F2159   1.383       .  S
C2145      F2160   1.380       .  S
C2147      F2155   1.384       .  S
C2147      F2156   1.378       .  S
C2147      F2157   1.383       .  S
C2161      C2162   1.399       .  A
C2161      C2166   1.410       .  A
C2161      H2171   1.083       .  S
C2162      C2163   1.414       .  A
C2162      C2167   1.488       .  S
C2163      C2164   1.408       .  A
C2163      C2168   1.522       .  S
C2164      C2165   1.412       .  A
C2164      H2169   1.082       .  S
C2165      C2166   1.430       .  A
C2166      C2170   1.521       .  S
C2167      C2172   1.416       .  A
C2167      C2176   1.398       .  A
C2168      F2184   1.382       .  S
C2168      F2185   1.382       .  S
C2168      F2186   1.385       .  S
C2170      F2181   1.385       .  S
C2170      F2182   1.383       .  S
C2170      F2183   1.384       .  S
C2172      C2173   1.413       .  A
C2172      C2177   1.518       .  S
C2173      C2174   1.408       .  A
C2173      H2178   1.082       .  S
C2174      C2175   1.425       .  A
C2175      C2176   1.402       .  A
C2175      C2179   1.521       .  S
C2176      H2180   1.085       .  S
C2177      F2190   1.384       .  S
C2177      F2191   1.382       .  S
C2177      F2192   1.382       .  S
C2179      F2187   1.384       .  S
C2179      F2188   1.379       .  S
C2179      F2189   1.383       .  S
C2193      C2194   1.398       .  A
C2193      C2198   1.406       .  A
C2193      H2203   1.083       .  S
C2194      C2195   1.411       .  A
C2194      C2199   1.482       .  S
C2195      C2196   1.408       .  A
C2195      C2200   1.520       .  S
C2196      C2197   1.414       .  A
C2196      H2201   1.082       .  S
C2197      C2198   1.429       .  A
C2198      C2202   1.523       .  S
C2199      C2204   1.415       .  A
C2199      C2208   1.403       .  A
C2200      F2216   1.382       .  S
C2200      F2217   1.382       .  S
C2200      F2218   1.385       .  S
C2202      F2213   1.385       .  S
C2202      F2214   1.383       .  S
C2202      F2215   1.383       .  S
C2204      C2205   1.403       .  A
C2204      C2209   1.521       .  S
C2205      C2206   1.405       .  A
C2205      H2210   1.083       .  S
C2206      C2207   1.418       .  A
C2207      C2208   1.407       .  A
C2207      C2211   1.519       .  S
C2208      H2212   1.084       .  S
C2209      F2222   1.385       .  S
C2209      F2223   1.382       .  S
C2209      F2224   1.382       .  S
C2211      F2219   1.384       .  S
C2211      F2220   1.381       .  S
C2211      F2221   1.381       .  S
C2225      C2226   1.401       .  A
C2225      C2230   1.404       .  A
C2225      H2235   1.084       .  S
C2226      C2227   1.415       .  A
C2226      C2231   1.483       .  S
C2227      C2228   1.409       .  A
C2227      C2232   1.520       .  S
C2228      C2229   1.406       .  A
C2228      H2233   1.083       .  S
C2229      C2230   1.419       .  A
C2230      C2234   1.520       .  S
C2231      C2236   1.416       .  A
C2231      C2240   1.403       .  A
C2232      F2248   1.382       .  S
C2232      F2249   1.382       .  S
C2232      F2250   1.385       .  S
C2234      F2245   1.384       .  S
C2234      F2246   1.385   1_556  S
C2234      F2247   1.382       .  S
C2236      C2237   1.405       .  A
C2236      C2241   1.520       .  S
C2237      C2238   1.403       .  A
C2237      H2242   1.083       .  S
C2238      C2239   1.413       .  A
C2239      C2240   1.406       .  A
C2239      C2243   1.515       .  S
C2240      H2244   1.083       .  S
C2241      F2254   1.385       .  S
C2241      F2255   1.382       .  S
C2241      F2256   1.382       .  S
C2243      F2251   1.384       .  S
C2243      F2252   1.383       .  S
C2243      F2253   1.380       .  S
C2257      C2258   1.402       .  A
C2257      C2262   1.411       .  A
C2257      H2267   1.083       .  S
C2258      C2259   1.415       .  A
C2258      C2263   1.486       .  S
C2259      C2260   1.404       .  A
C2259      C2264   1.522       .  S
C2260      C2261   1.408       .  A
C2260      H2265   1.083       .  S
C2261      C2262   1.423       .  A
C2262      C2266   1.519       .  S
C2263      C2268   1.417       .  A
C2263      C2272   1.400       .  A
C2264      F2280   1.382       .  S
C2264      F2281   1.382       .  S
C2264      F2282   1.385       .  S
C2266      F2277   1.385       .  S
C2266      F2278   1.382       .  S
C2266      F2279   1.384       .  S
C2268      C2269   1.409       .  A
C2268      C2273   1.517       .  S
C2269      C2270   1.402       .  A
C2269      H2274   1.083       .  S
C2270      C2271   1.418       .  A
C2271      C2272   1.404       .  A
C2271      C2275   1.521       .  S
C2272      H2276   1.083       .  S
C2273      F2286   1.385       .  S
C2273      F2287   1.382       .  S
C2273      F2288   1.382       .  S
C2275      F2283   1.385       .  S
C2275      F2284   1.382       .  S
C2275      F2285   1.381       .  S
C2289      C2290   1.400       .  A
C2289      C2294   1.407       .  A
C2289      H2299   1.083       .  S
C2290      C2291   1.414       .  A
C2290      C2295   1.484       .  S
C2291      C2292   1.407       .  A
C2291      C2296   1.520       .  S
C2292      C2293   1.409       .  A
C2292      H2297   1.083       .  S
C2293      C2294   1.425       .  A
C2294      C2298   1.521       .  S
C2295      C2300   1.416       .  A
C2295      C2304   1.399       .  A
C2296      F2312   1.382       .  S
C2296      F2313   1.382       .  S
C2296      F2314   1.385       .  S
C2298      F2309   1.385       .  S
C2298      F2310   1.383       .  S
C2298      F2311   1.384       .  S
C2300      C2301   1.408       .  A
C2300      C2305   1.519       .  S
C2301      C2302   1.405       .  A
C2301      H2306   1.082       .  S
C2302      C2303   1.422       .  A
C2303      C2304   1.401       .  A
C2303      C2307   1.522       .  S
C2304      H2308   1.085       .  S
C2305      F2318   1.385       .  S
C2305      F2319   1.382       .  S
C2305      F2320   1.382       .  S
C2307      F2315   1.382       .  S
C2307      F2316   1.380       .  S
C2307      F2317   1.384       .  S
C2321      C2322   1.397       .  A
C2321      C2326   1.409       .  A
C2321      H2331   1.083       .  S
C2322      C2323   1.413       .  A
C2322      C2327   1.487       .  S
C2323      C2324   1.410       .  A
C2323      C2328   1.520       .  S
C2324      C2325   1.413       .  A
C2324      H2329   1.082       .  S
C2325      C2326   1.433       .  A
C2326      C2330   1.523       .  S
C2327      C2332   1.416       .  A
C2327      C2336   1.399       .  A
C2328      F2344   1.382       .  S
C2328      F2345   1.382       .  S
C2328      F2346   1.384       .  S
C2330      F2341   1.385       .  S
C2330      F2342   1.383       .  S
C2330      F2343   1.384       .  S
C2332      C2333   1.410       .  A
C2332      C2337   1.518       .  S
C2333      C2334   1.406       .  A
C2333      H2338   1.083       .  S
C2334      C2335   1.424       .  A
C2335      C2336   1.404       .  A
C2335      C2339   1.522       .  S
C2336      H2340   1.084       .  S
C2337      F2350   1.385       .  S
C2337      F2351   1.382       .  S
C2337      F2352   1.381       .  S
C2339      F2347   1.381       .  S
C2339      F2348   1.380       .  S
C2339      F2349   1.385       .  S
C2353      C2354   1.401       .  A
C2353      C2358   1.403       .  A
C2353      H2363   1.084       .  S
C2354      C2355   1.416   1_545  A
C2355      C2356   1.404       .  A
C2355      C2360   1.520       .  S
C2356      C2357   1.404   1_565  A
C2356      H2361   1.080       .  S
C2357      C2358   1.418       .  A
C2358      C2362   1.513       .  S
C2359      C2364   1.415   1_545  A
C2359      C2368   1.402       .  A
C2360      F2378   1.385       .  S
C2362      F2373   1.384       .  S
C2362      F2374   1.382       .  S
C2362      F2375   1.379       .  S
C2364      C2365   1.401       .  A
C2364      C2369   1.521       .  S
C2365      C2366   1.404       .  A
C2365      H2370   1.079       .  S
C2366      C2367   1.421   1_565  A
C2367      C2368   1.406       .  A
C2367      C2371   1.516       .  S
C2368      H2372   1.084       .  S
C2369      F2382   1.385       .  S
C2369      F2383   1.381       .  S
C2369      F2384   1.383       .  S
C2371      F2379   1.383       .  S
C2371      F2380   1.379       .  S
C2371      F2381   1.384       .  S
C2385      C2386   1.403       .  A
C2385      C2390   1.408       .  A
C2385      H2395   1.083       .  S
C2386      C2387   1.415       .  A
C2386      C2391   1.486       .  S
C2387      C2388   1.407       .  A
C2387      C2392   1.519       .  S
C2388      C2389   1.404       .  A
C2388      H2393   1.083       .  S
C2389      C2390   1.415       .  A
C2390      C2394   1.515       .  S
C2391      C2396   1.415       .  A
C2391      C2400   1.401       .  A
C2392      F2408   1.382       .  S
C2392      F2409   1.382       .  S
C2392      F2410   1.385       .  S
C2394      F2405   1.384       .  S
C2394      F2406   1.380       .  S
C2394      F2407   1.383       .  S
C2396      C2397   1.407       .  A
C2396      C2401   1.521       .  S
C2397      C2398   1.407       .  A
C2397      H2402   1.083       .  S
C2398      C2399   1.424       .  A
C2399      C2400   1.410       .  A
C2399      C2403   1.520       .  S
C2400      H2404   1.083       .  S
C2401      F2414   1.384   1_556  S
C2401      F2415   1.382       .  S
C2401      F2416   1.382       .  S
C2403      F2411   1.384       .  S
C2403      F2412   1.383       .  S
C2403      F2413   1.385       .  S
C2417      C2418   1.401       .  A
C2417      C2422   1.403       .  A
C2417      H2427   1.085       .  S
C2418      C2419   1.417       .  A
C2418      C2423   1.487       .  S
C2419      C2420   1.410       .  A
C2419      C2424   1.518       .  S
C2420      C2421   1.404       .  A
C2420      H2425   1.083       .  S
C2421      C2422   1.418       .  A
C2422      C2426   1.518       .  S
C2423      C2428   1.414       .  A
C2423      C2432   1.399       .  A
C2424      F2440   1.382       .  S
C2424      F2441   1.382       .  S
C2424      F2442   1.385       .  S
C2426      F2437   1.384       .  S
C2426      F2438   1.383       .  S
C2426      F2439   1.382       .  S
C2428      C2429   1.408       .  A
C2428      C2433   1.521       .  S
C2429      C2430   1.411       .  A
C2429      H2434   1.082       .  S
C2430      C2431   1.429       .  A
C2431      C2432   1.409       .  A
C2431      C2435   1.522       .  S
C2432      H2436   1.083       .  S
C2433      F2446   1.384       .  S
C2433      F2447   1.382       .  S
C2433      F2448   1.382       .  S
C2435      F2443   1.384       .  S
C2435      F2444   1.383       .  S
C2435      F2445   1.385       .  S
C2449      C2450   1.403       .  A
C2449      C2454   1.406       .  A
C2449      H2459   1.084       .  S
C2450      C2451   1.416       .  A
C2450      C2455   1.487       .  S
C2451      C2452   1.405       .  A
C2451      C2456   1.520       .  S
C2452      C2453   1.405       .  A
C2452      H2457   1.082       .  S
C2453      C2454   1.418       .  A
C2454      C2458   1.515       .  S
C2455      C2460   1.415       .  A
C2455      C2464   1.402       .  A
C2456      F2472   1.381       .  S
C2456      F2473   1.383       .  S
C2456      F2474   1.385       .  S
C2458      F2469   1.384       .  S
C2458      F2470   1.383       .  S
C2458      F2471   1.380       .  S
C2460      C2461   1.405       .  A
C2460      C2465   1.520       .  S
C2461      C2462   1.405       .  A
C2461      H2466   1.079       .  S
C2462      C2463   1.421       .  A
C2463      C2464   1.406       .  A
C2463      C2467   1.517       .  S
C2464      H2468   1.084       .  S
C2465      F2478   1.385       .  S
C2465      F2479   1.381       .  S
C2465      F2480   1.383       .  S
C2467      F2475   1.384       .  S
C2467      F2476   1.383       .  S
C2467      F2477   1.381       .  S
C2481      C2482   1.402       .  A
C2481      C2486   1.405       .  A
C2481      H2491   1.085       .  S
C2482      C2483   1.417       .  A
C2482      C2487   1.486       .  S
C2483      C2484   1.408       .  A
C2483      C2488   1.520       .  S
C2484      C2485   1.403       .  A
C2484      H2489   1.083       .  S
C2485      C2486   1.420       .  A
C2486      C2490   1.520       .  S
C2487      C2492   1.416       .  A
C2487      C2496   1.398       .  A
C2488      F2504   1.381       .  S
C2488      F2505   1.382       .  S
C2488      F2506   1.385       .  S
C2490      F2501   1.383       .  S
C2490      F2502   1.384       .  S
C2490      F2503   1.381       .  S
C2492      C2493   1.410       .  A
C2492      C2497   1.518       .  S
C2493      C2494   1.406       .  A
C2493      H2498   1.082       .  S
C2494      C2495   1.424       .  A
C2495      C2496   1.401       .  A
C2495      C2499   1.520       .  S
C2496      H2500   1.085       .  S
C2497      F2510   1.385       .  S
C2497      F2511   1.382       .  S
C2497      F2512   1.382       .  S
C2499      F2507   1.383       .  S
C2499      F2508   1.380       .  S
C2499      F2509   1.384       .  S
C2513      C2514   1.402       .  A
C2513      C2518   1.409       .  A
C2513      H2523   1.083       .  S
C2514      C2515   1.415       .  A
C2514      C2519   1.481       .  S
C2515      C2516   1.404       .  A
C2515      C2520   1.521       .  S
C2516      C2517   1.404       .  A
C2516      H2521   1.083       .  S
C2517      C2518   1.419       .  A
C2518      C2522   1.519       .  S
C2519      C2524   1.415       .  A
C2519      C2528   1.401       .  A
C2520      F2536   1.382       .  S
C2520      F2537   1.382       .  S
C2520      F2538   1.384       .  S
C2522      F2533   1.385       .  S
C2522      F2534   1.382       .  S
C2522      F2535   1.383       .  S
C2524      C2525   1.405       .  A
C2524      C2529   1.519       .  S
C2525      C2526   1.403       .  A
C2525      H2530   1.083       .  S
C2526      C2527   1.415       .  A
C2527      C2528   1.406       .  A
C2527      C2531   1.516       .  S
C2528      H2532   1.083       .  S
C2529      F2542   1.384       .  S
C2529      F2543   1.382       .  S
C2529      F2544   1.382       .  S
C2531      F2539   1.379       .  S
C2531      F2540   1.384       .  S
C2531      F2541   1.384       .  S
C2545      C2546   1.403       .  A
C2545      C2550   1.408       .  A
C2545      H2555   1.084       .  S
C2546      C2547   1.415       .  A
C2546      C2551   1.487       .  S
C2547      C2548   1.405       .  A
C2547      C2552   1.520       .  S
C2548      C2549   1.406       .  A
C2548      H2553   1.083       .  S
C2549      C2550   1.419       .  A
C2550      C2554   1.518       .  S
C2551      C2556   1.417       .  A
C2551      C2560   1.403       .  A
C2552      F2568   1.382       .  S
C2552      F2569   1.383       .  S
C2552      F2570   1.384       .  S
C2554      F2565   1.384       .  S
C2554      F2566   1.383       .  S
C2554      F2567   1.381       .  S
C2556      C2557   1.406       .  A
C2556      C2561   1.520       .  S
C2557      C2558   1.401       .  A
C2557      H2562   1.084       .  S
C2558      C2559   1.418       .  A
C2559      C2560   1.408       .  A
C2559      C2563   1.519       .  S
C2560      H2564   1.085       .  S
C2561      F2574   1.385       .  S
C2561      F2575   1.382       .  S
C2561      F2576   1.383       .  S
C2563      F2571   1.384       .  S
C2563      F2572   1.382       .  S
C2563      F2573   1.383       .  S
C2577      C2578   1.403       .  A
C2577      C2582   1.406       .  A
C2577      H2587   1.083       .  S
C2578      C2579   1.418       .  A
C2578      C2583   1.486       .  S
C2579      C2580   1.410       .  A
C2579      C2584   1.520       .  S
C2580      C2581   1.403       .  A
C2580      H2585   1.083       .  S
C2581      C2582   1.415       .  A
C2582      C2586   1.519       .  S
C2583      C2588   1.416       .  A
C2583      C2592   1.401       .  A
C2584      F2600   1.382       .  S
C2584      F2601   1.380       .  S
C2584      F2602   1.384       .  S
C2586      F2597   1.384       .  S
C2586      F2598   1.383       .  S
C2586      F2599   1.383       .  S
C2588      C2589   1.410       .  A
C2588      C2593   1.519       .  S
C2589      C2590   1.405       .  A
C2589      H2594   1.083       .  S
C2590      C2591   1.420       .  A
C2591      C2592   1.405       .  A
C2591      C2595   1.521       .  S
C2592      H2596   1.084       .  S
C2593      F2606   1.385       .  S
C2593      F2607   1.382       .  S
C2593      F2608   1.381       .  S
C2595      F2603   1.380       .  S
C2595      F2604   1.382       .  S
C2595      F2605   1.385       .  S
C2609      C2610   1.402       .  A
C2609      C2614   1.407       .  A
C2609      H2619   1.083       .  S
C2610      C2611   1.417       .  A
C2610      C2615   1.483       .  S
C2611      C2612   1.405       .  A
C2611      C2616   1.519       .  S
C2612      C2613   1.401       .  A
C2612      H2617   1.083       .  S
C2613      C2614   1.414       .  A
C2614      C2618   1.517       .  S
C2615      C2620   1.414       .  A
C2615      C2624   1.399       .  A
C2616      F2632   1.379       .  S
C2616      F2633   1.381       .  S
C2616      F2634   1.385       .  S
C2618      F2629   1.384       .  S
C2618      F2630   1.383       .  S
C2618      F2631   1.383       .  S
C2620      C2621   1.409       .  A
C2620      C2625   1.518       .  S
C2621      C2622   1.406       .  A
C2621      H2626   1.083       .  S
C2622      C2623   1.423       .  A
C2623      C2624   1.400       .  A
C2623      C2627   1.523       .  S
C2624      H2628   1.085       .  S
C2625      F2638   1.385       .  S
C2625      F2639   1.382       .  S
C2625      F2640   1.382       .  S
C2627      F2635   1.384       .  S
C2627      F2636   1.379       .  S
C2627      F2637   1.383       .  S
C2641      C2642   1.400       .  A
C2641      C2646   1.404       .  A
C2641      H2651   1.084       .  S
C2642      C2643   1.414       .  A
C2642      C2647   1.480       .  S
C2643      C2644   1.406       .  A
C2643      C2648   1.519       .  S
C2644      C2645   1.404       .  A
C2644      H2649   1.083       .  S
C2645      C2646   1.418       .  A
C2646      C2650   1.520       .  S
C2647      C2652   1.415       .  A
C2647      C2656   1.401       .  A
C2648      F2664   1.382       .  S
C2648      F2665   1.382       .  S
C2648      F2666   1.385       .  S
C2650      F2661   1.381       .  S
C2650      F2662   1.385       .  S
C2650      F2663   1.383       .  S
C2652      C2653   1.403       .  A
C2652      C2657   1.518       .  S
C2653      C2654   1.401       .  A
C2653      H2658   1.083       .  S
C2654      C2655   1.419       .  A
C2655      C2656   1.408       .  A
C2655      C2659   1.518       .  S
C2656      H2660   1.083       .  S
C2657      F2670   1.385       .  S
C2657      F2671   1.382       .  S
C2657      F2672   1.382       .  S
C2659      F2667   1.385       .  S
C2659      F2668   1.384       .  S
C2659      F2669   1.382       .  S
C2673      C2674   1.402       .  A
C2673      C2678   1.405       .  A
C2673      H2683   1.085       .  S
C2674      C2675   1.414       .  A
C2674      C2679   1.484       .  S
C2675      C2676   1.407       .  A
C2675      C2680   1.522       .  S
C2676      C2677   1.408       .  A
C2676      H2681   1.080       .  S
C2677      C2678   1.419       .  A
C2678      C2682   1.513       .  S
C2679      C2684   1.414       .  A
C2679      C2688   1.400       .  A
C2680      F2696   1.383       .  S
C2680      F2697   1.380       .  S
C2680      F2698   1.385       .  S
C2682      F2693   1.382       .  S
C2682      F2694   1.384       .  S
C2682      F2695   1.379       .  S
C2684      C2685   1.408       .  A
C2684      C2689   1.520       .  S
C2685      C2686   1.407       .  A
C2685      H2690   1.079       .  S
C2686      C2687   1.422       .  A
C2687      C2688   1.406       .  A
C2687      C2691   1.514       .  S
C2688      H2692   1.085       .  S
C2689      F2702   1.384       .  S
C2689      F2703   1.383       .  S
C2689      F2704   1.380       .  S
C2691      F2699   1.384       .  S
C2691      F2700   1.379       .  S
C2691      F2701   1.382       .  S
C2705      C2706   1.402       .  A
C2705      C2710   1.407       .  A
C2705      H2715   1.085       .  S
C2706      C2707   1.417       .  A
C2706      C2711   1.484       .  S
C2707      C2708   1.406       .  A
C2707      C2712   1.520       .  S
C2708      C2709   1.402       .  A
C2708      H2713   1.084       .  S
C2709      C2710   1.419       .  A
C2710      C2714   1.519       .  S
C2711      C2716   1.415       .  A
C2711      C2720   1.397       .  A
C2712      F2728   1.382       .  S
C2712      F2729   1.382       .  S
C2712      F2730   1.385       .  S
C2714      F2725   1.383       .  S
C2714      F2726   1.383       .  S
C2714      F2727   1.382       .  S
C2716      C2717   1.410       .  A
C2716      C2721   1.517       .  S
C2717      C2718   1.405       .  A
C2717      H2722   1.083       .  S
C2718      C2719   1.425       .  A
C2719      C2720   1.402       .  A
C2719      C2723   1.523       .  S
C2720      H2724   1.085       .  S
C2721      F2734   1.384       .  S
C2721      F2735   1.382       .  S
C2721      F2736   1.382       .  S
C2723      F2731   1.384       .  S
C2723      F2732   1.380       .  S
C2723      F2733   1.383       .  S
C2737      C2738   1.403       .  A
C2737      C2742   1.409       .  A
C2737      H2747   1.083       .  S
C2738      C2739   1.418       .  A
C2738      C2743   1.486       .  S
C2739      C2740   1.407       .  A
C2739      C2744   1.521       .  S
C2740      C2741   1.402       .  A
C2740      H2745   1.083       .  S
C2741      C2742   1.416       .  A
C2742      C2746   1.517       .  S
C2743      C2748   1.414       .  A
C2743      C2752   1.403       .  A
C2744      F2760   1.382       .  S
C2744      F2761   1.382       .  S
C2744      F2762   1.385       .  S
C2746      F2757   1.385       .  S
C2746      F2758   1.382       .  S
C2746      F2759   1.384       .  S
C2748      C2749   1.406       .  A
C2748      C2753   1.520       .  S
C2749      C2750   1.405       .  A
C2749      H2754   1.083       .  S
C2750      C2751   1.419       .  A
C2751      C2752   1.408       .  A
C2751      C2755   1.519       .  S
C2752      H2756   1.085       .  S
C2753      F2766   1.384       .  S
C2753      F2767   1.382       .  S
C2753      F2768   1.382       .  S
C2755      F2763   1.383       .  S
C2755      F2764   1.380       .  S
C2755      F2765   1.384       .  S
C2769      C2770   1.398       .  A
C2769      C2774   1.409       .  A
C2769      H2779   1.083       .  S
C2770      C2771   1.414       .  A
C2770      C2775   1.483       .  S
C2771      C2772   1.406       .  A
C2771      C2776   1.522       .  S
C2772      C2773   1.410       .  A
C2772      H2777   1.082       .  S
C2773      C2774   1.429       .  A
C2774      C2778   1.521       .  S
C2775      C2780   1.416       .  A
C2775      C2784   1.400       .  A
C2776      F2792   1.382       .  S
C2776      F2793   1.382       .  S
C2776      F2794   1.385       .  S
C2778      F2789   1.385       .  S
C2778      F2790   1.383       .  S
C2778      F2791   1.383       .  S
C2780      C2781   1.409       .  A
C2780      C2785   1.518       .  S
C2781      C2782   1.403       .  A
C2781      H2786   1.083       .  S
C2782      C2783   1.418       .  A
C2783      C2784   1.403       .  A
C2783      C2787   1.520       .  S
C2784      H2788   1.084       .  S
C2785      F2798   1.384       .  S
C2785      F2799   1.383       .  S
C2785      F2800   1.382       .  S
C2787      F2795   1.385       .  S
C2787      F2796   1.383       .  S
C2787      F2797   1.381       .  S
C2801      C2802   1.399       .  A
C2801      C2806   1.407       .  A
C2801      H2811   1.083       .  S
C2802      C2803   1.413       .  A
C2802      C2807   1.482       .  S
C2803      C2804   1.406       .  A
C2803      C2808   1.519       .  S
C2804      C2805   1.410       .  A
C2804      H2809   1.082       .  S
C2805      C2806   1.427       .  A
C2806      C2810   1.521       .  S
C2807      C2812   1.418       .  A
C2807      C2816   1.399       .  A
C2808      F2824   1.382       .  S
C2808      F2825   1.383       .  S
C2808      F2826   1.385       .  S
C2810      F2821   1.385       .  S
C2810      F2822   1.383       .  S
C2810      F2823   1.384       .  S
C2812      C2813   1.406       .  A
C2812      C2817   1.518       .  S
C2813      C2814   1.403       .  A
C2813      H2818   1.084       .  S
C2814      C2815   1.423       .  A
C2815      C2816   1.401       .  A
C2815      C2819   1.523       .  S
C2816      H2820   1.085       .  S
C2817      F2830   1.384       .  S
C2817      F2831   1.383       .  S
C2817      F2832   1.382       .  S
C2819      F2827   1.383       .  S
C2819      F2828   1.380       .  S
C2819      F2829   1.384       .  S
C2833      C2834   1.403       .  A
C2833      C2838   1.409       .  A
C2833      H2843   1.083       .  S
C2834      C2835   1.416       .  A
C2834      C2839   1.486       .  S
C2835      C2836   1.406       .  A
C2835      C2840   1.520       .  S
C2836      C2837   1.403       .  A
C2836      H2841   1.083       .  S
C2837      C2838   1.415       .  A
C2838      C2842   1.515       .  S
C2839      C2844   1.414       .  A
C2839      C2848   1.401       .  A
C2840      F2856   1.382       .  S
C2840      F2857   1.382       .  S
C2840      F2858   1.384       .  S
C2842      F2853   1.380       .  S
C2842      F2854   1.384       .  S
C2842      F2855   1.383       .  S
C2844      C2845   1.409       .  A
C2844      C2849   1.519       .  S
C2845      C2846   1.407       .  A
C2845      H2850   1.083       .  S
C2846      C2847   1.422       .  A
C2847      C2848   1.408       .  A
C2847      C2851   1.520       .  S
C2848      H2852   1.084       .  S
C2849      F2862   1.384       .  S
C2849      F2863   1.383       .  S
C2849      F2864   1.382       .  S
C2851      F2859   1.385       .  S
C2851      F2860   1.384       .  S
C2851      F2861   1.382       .  S
C2865      C2866   1.404       .  A
C2865      C2870   1.406       .  A
C2865      H2875   1.083       .  S
C2866      C2867   1.416       .  A
C2866      C2871   1.486       .  S
C2867      C2868   1.410       .  A
C2867      C2872   1.518       .  S
C2868      C2869   1.403       .  A
C2868      H2873   1.083       .  S
C2869      C2870   1.414       .  A
C2870      C2874   1.518       .  S
C2871      C2876   1.415       .  A
C2871      C2880   1.403       .  A
C2872      F2888   1.382       .  S
C2872      F2889   1.382       .  S
C2872      F2890   1.384       .  S
C2874      F2885   1.382       .  S
C2874      F2886   1.384       .  S
C2874      F2887   1.383       .  S
C2876      C2877   1.405       .  A
C2876      C2881   1.521       .  S
C2877      C2878   1.405       .  A
C2877      H2882   1.083       .  S
C2878      C2879   1.419       .  A
C2879      C2880   1.409       .  A
C2879      C2883   1.517       .  S
C2880      H2884   1.084       .  S
C2881      F2894   1.385       .  S
C2881      F2895   1.382       .  S
C2881      F2896   1.382       .  S
C2883      F2891   1.384       .  S
C2883      F2892   1.380       .  S
C2883      F2893   1.381       .  S
C2897      C2898   1.398       .  A
C2897      C2902   1.410       .  A
C2897      H2907   1.083       .  S
C2898      C2899   1.412       .  A
C2898      C2903   1.486       .  S
C2899      C2900   1.407       .  A
C2899      C2904   1.521       .  S
C2900      C2901   1.413       .  A
C2900      H2905   1.082       .  S
C2901      C2902   1.431       .  A
C2902      C2906   1.522       .  S
C2903      C2908   1.415       .  A
C2903      C2912   1.398       .  A
C2904      F2920   1.383       .  S
C2904      F2921   1.382       .  S
C2904      F2922   1.385       .  S
C2906      F2917   1.385       .  S
C2906      F2918   1.384       .  S
C2906      F2919   1.383       .  S
C2908      C2909   1.409       .  A
C2908      C2913   1.517       .  S
C2909      C2910   1.405       .  A
C2909      H2914   1.082       .  S
C2910      C2911   1.425       .  A
C2911      C2912   1.403       .  A
C2911      C2915   1.523       .  S
C2912      H2916   1.085       .  S
C2913      F2926   1.384       .  S
C2913      F2927   1.383       .  S
C2913      F2928   1.382       .  S
C2915      F2923   1.384       .  S
C2915      F2924   1.380       .  S
C2915      F2925   1.383       .  S
C2929      C2930   1.401       .  A
C2929      C2934   1.408       .  A
C2929      H2939   1.083       .  S
C2930      C2931   1.414       .  A
C2930      C2935   1.482       .  S
C2931      C2932   1.405       .  A
C2931      C2936   1.520       .  S
C2932      C2933   1.405       .  A
C2932      H2937   1.083       .  S
C2933      C2934   1.418       .  A
C2934      C2938   1.517       .  S
C2935      C2940   1.415       .  A
C2935      C2944   1.400       .  A
C2936      F2952   1.382       .  S
C2936      F2953   1.382       .  S
C2936      F2954   1.385       .  S
C2938      F2949   1.378       .  S
C2938      F2950   1.385       .  S
C2938      F2951   1.383       .  S
C2940      C2941   1.409       .  A
C2940      C2945   1.519       .  S
C2941      C2942   1.405       .  A
C2941      H2946   1.083       .  S
C2942      C2943   1.420       .  A
C2943      C2944   1.404       .  A
C2943      C2947   1.520       .  S
C2944      H2948   1.084       .  S
C2945      F2958   1.384       .  S
C2945      F2959   1.382       .  S
C2945      F2960   1.382       .  S
C2947      F2955   1.385       .  S
C2947      F2956   1.384       .  S
C2947      F2957   1.382       .  S
C2961      C2962   1.402       .  A
C2961      C2966   1.407       .  A
C2961      H2971   1.084       .  S
C2962      C2963   1.413   1_455  A
C2963      C2964   1.401       .  A
C2963      C2968   1.519       .  S
C2964      C2965   1.405   1_655  A
C2964      H2969   1.080       .  S
C2965      C2966   1.422       .  A
C2966      C2970   1.516       .  S
C2967      C2972   1.413       .  A
C2967      C2976   1.401   1_455  A
C2968      F2986   1.385       .  S
C2970      F2981   1.383       .  S
C2970      F2982   1.384       .  S
C2970      F2983   1.379       .  S
C2972      C2973   1.405       .  A
C2972      C2977   1.519       .  S
C2973      C2974   1.405       .  A
C2973      H2978   1.080       .  S
C2974      C2975   1.422   1_455  A
C2975      C2976   1.407       .  A
C2975      C2979   1.516       .  S
C2976      H2980   1.085       .  S
C2977      F2990   1.384       .  S
C2977      F2991   1.383       .  S
C2977      F2992   1.381       .  S
C2979      F2987   1.384       .  S
C2979      F2988   1.380       .  S
C2979      F2989   1.383       .  S
C2993      C2994   1.401       .  A
C2993      C2998   1.405       .  A
C2993      H3003   1.083       .  S
C2994      C2995   1.416       .  A
C2994      C2999   1.484       .  S
C2995      C2996   1.407       .  A
C2995      C3000   1.518       .  S
C2996      C2997   1.401       .  A
C2996      H3001   1.083       .  S
C2997      C2998   1.418       .  A
C2998      C3002   1.521       .  S
C2999      C3004   1.416       .  A
C2999      C3008   1.403       .  A
C3000      F3016   1.382       .  S
C3000      F3017   1.383       .  S
C3000      F3018   1.385       .  S
C3002      F3013   1.381       .  S
C3002      F3014   1.385       .  S
C3002      F3015   1.382       .  S
C3004      C3005   1.405       .  A
C3004      C3009   1.521       .  S
C3005      C3006   1.403       .  A
C3005      H3010   1.083       .  S
C3006      C3007   1.417       .  A
C3007      C3008   1.409       .  A
C3007      C3011   1.518       .  S
C3008      H3012   1.083       .  S
C3009      F3022   1.384       .  S
C3009      F3023   1.382       .  S
C3009      F3024   1.382       .  S
C3011      F3019   1.384       .  S
C3011      F3020   1.382       .  S
C3011      F3021   1.385       .  S
C3025      C3026   1.404       .  A
C3025      C3030   1.410       .  A
C3025      H3035   1.083       .  S
C3026      C3027   1.417       .  A
C3026      C3031   1.490       .  S
C3027      C3028   1.405       .  A
C3027      C3032   1.520       .  S
C3028      C3029   1.401       .  A
C3028      H3033   1.081       .  S
C3029      C3030   1.416       .  A
C3030      C3034   1.517       .  S
C3031      C3036   1.414       .  A
C3031      C3040   1.400       .  A
C3032      F3048   1.381       .  S
C3032      F3049   1.383       .  S
C3032      F3050   1.385       .  S
C3034      F3045   1.384       .  S
C3034      F3046   1.383       .  S
C3034      F3047   1.381       .  S
C3036      C3037   1.411       .  A
C3036      C3041   1.519       .  S
C3037      C3038   1.410       .  A
C3037      H3042   1.083       .  S
C3038      C3039   1.426       .  A
C3039      C3040   1.407       .  A
C3039      C3043   1.522       .  S
C3040      H3044   1.083       .  S
C3041      F3054   1.384       .  S
C3041      F3055   1.382       .  S
C3041      F3056   1.383       .  S
C3043      F3051   1.383       .  S
C3043      F3052   1.383       .  S
C3043      F3053   1.384   1_556  S
C3057      C3058   1.401       .  A
C3057      C3062   1.404       .  A
C3057      H3067   1.085       .  S
C3058      C3059   1.416       .  A
C3058      C3063   1.486       .  S
C3059      C3060   1.409       .  A
C3059      C3064   1.518       .  S
C3060      C3061   1.403       .  A
C3060      H3065   1.083       .  S
C3061      C3062   1.419       .  A
C3062      C3066   1.519       .  S
C3063      C3068   1.418       .  A
C3063      C3072   1.403       .  A
C3064      F3080   1.382       .  S
C3064      F3081   1.383       .  S
C3064      F3082   1.385       .  S
C3066      F3077   1.383       .  S
C3066      F3078   1.383       .  S
C3066      F3079   1.381       .  S
C3068      C3069   1.407       .  A
C3068      C3073   1.521       .  S
C3069      C3070   1.402       .  A
C3069      H3074   1.083       .  S
C3070      C3071   1.417       .  A
C3071      C3072   1.409       .  A
C3071      C3075   1.518       .  S
C3072      H3076   1.083       .  S
C3073      F3086   1.384       .  S
C3073      F3087   1.382       .  S
C3073      F3088   1.383       .  S
C3075      F3083   1.382       .  S
C3075      F3084   1.384       .  S
C3075      F3085   1.385       .  S
C3089      C3090   1.403       .  A
C3089      C3094   1.408       .  A
C3089      H3099   1.085       .  S
C3090      C3091   1.416       .  A
C3090      C3095   1.488       .  S
C3091      C3092   1.405       .  A
C3091      C3096   1.520       .  S
C3092      C3093   1.404       .  A
C3092      H3097   1.083       .  S
C3093      C3094   1.419       .  A
C3094      C3098   1.518       .  S
C3095      C3100   1.413       .  A
C3095      C3104   1.399       .  A
C3096      F3112   1.381       .  S
C3096      F3113   1.382       .  S
C3096      F3114   1.385       .  S
C3098      F3109   1.384       .  S
C3098      F3110   1.380       .  S
C3098      F3111   1.382       .  S
C3100      C3101   1.410       .  A
C3100      C3105   1.520       .  S
C3101      C3102   1.412       .  A
C3101      H3106   1.082       .  S
C3102      C3103   1.429       .  A
C3103      C3104   1.408       .  A
C3103      C3107   1.523       .  S
C3104      H3108   1.083       .  S
C3105      F3118   1.385       .  S
C3105      F3119   1.382       .  S
C3105      F3120   1.382       .  S
C3107      F3115   1.383       .  S
C3107      F3116   1.384       .  S
C3107      F3117   1.385       .  S
C3121      C3122   1.402       .  A
C3121      C3126   1.407       .  A
C3121      H3131   1.085       .  S
C3122      C3123   1.414       .  A
C3122      C3127   1.482       .  S
C3123      C3124   1.404       .  A
C3123      C3128   1.523       .  S
C3124      C3125   1.405       .  A
C3124      H3129   1.079       .  S
C3125      C3126   1.419       .  A
C3126      C3130   1.514       .  S
C3127      C3132   1.412       .  A
C3127      C3136   1.400       .  A
C3128      F3144   1.383       .  S
C3128      F3145   1.380       .  S
C3128      F3146   1.384       .  S
C3130      F3141   1.382       .  S
C3130      F3142   1.384       .  S
C3130      F3143   1.381       .  S
C3132      C3133   1.405       .  A
C3132      C3137   1.520       .  S
C3133      C3134   1.407       .  A
C3133      H3138   1.078       .  S
C3134      C3135   1.420       .  A
C3135      C3136   1.405       .  A
C3135      C3139   1.513       .  S
C3136      H3140   1.085       .  S
C3137      F3150   1.385       .  S
C3137      F3151   1.383       .  S
C3137      F3152   1.380       .  S
C3139      F3147   1.384       .  S
C3139      F3148   1.381       .  S
C3139      F3149   1.382       .  S
