geometry optimzed in LAMMPS
_audit_creation_date              2020-12-01 
_audit_creation_method            'lammps2cif' 
_symmetry_space_group_name_H-M    'P1' 
_symmetry_Int_Tables_number       1 
_symmetry_cell_setting            triclinic 
loop_ 
_symmetry_equiv_pos_as_xyz 
  x,y,z 
_cell_length_a                    31.56003462 
_cell_length_b                    31.580127118850804 
_cell_length_c                    44.41277060426195 
_cell_angle_alpha                 90.25134969652146 
_cell_angle_beta                  89.66562434379823 
_cell_angle_gamma                 90.16320646469478 
loop_ 
_atom_site_label 
_atom_site_type_symbol 
_atom_site_fract_x 
_atom_site_fract_y 
_atom_site_fract_z 
_atom_site_charge 
C1          C  0.30722450  0.46965263  0.12482730     0.81700
N2          N  0.30454715  0.47074304  0.15559355    -0.76600
C3          C  0.30317090  0.50841077  0.17062144     0.84100
N4          N  0.30433421  0.54472374  0.15498744    -0.76500
C5          C  0.30574082  0.54513354  0.12454001     0.84200
N6          N  0.30666849  0.50725359  0.10923707    -0.78300
C7          C  0.26442534  0.52584216  0.29778157     0.81700
N8          N  0.27138451  0.52518099  0.26734952    -0.76600
C9          C  0.26470434  0.48856557  0.25152187     0.84100
N10         N  0.25156638  0.45356572  0.26620540    -0.76500
C11         C  0.24542407  0.45406682  0.29638447     0.84200
N12         N  0.25210725  0.49010413  0.31204129    -0.78300
C13         C  0.09819475  0.72340126  0.37159343     0.81700
N14         N  0.09142965  0.71489795  0.40119693    -0.76600
C15         C  0.05181971  0.71222892  0.41280995     0.84100
N16         N  0.01829500  0.71853482  0.39466680    -0.76500
C17         C  0.02355104  0.72713134  0.36490521     0.84200
N18         N  0.06387432  0.72895464  0.35310959    -0.78300
C19         C  0.11435346  0.68789686  0.02607226     0.81700
N20         N  0.07767452  0.68673331  0.04213305    -0.76600
C21         C  0.03988215  0.68630468  0.02785890     0.84100
N22         N  0.03883286  0.68757246  0.99733071    -0.76500
C23         C  0.07553305  0.68833733  0.98125527     0.84200
N24         N  0.11310865  0.68881904  0.99569932    -0.78300
O25         O  0.31011813  0.69792130  0.42704362    -0.79400
O26         O  0.26562488  0.75107654  0.29463541    -0.64100
O27         O  0.32409285  0.71074092  0.36377050    -1.10700
C28         C  0.35716440  0.85164788  0.38270004     1.07500
O29         O  0.31154486  0.80184045  0.28295579    -0.77300
O30         O  0.38144989  0.78895231  0.31541840    -0.64900
Ni31       Ni  0.29931428  0.66837566  0.38906946     1.34900
C32         C  0.40421600  0.77154206  0.33519926     0.86200
O33         O  0.28563001  0.67511863  0.31327186    -0.77800
O34         O  0.28772227  0.63343944  0.35411338    -0.88100
C35         C  0.28266066  0.77563177  0.27565240     0.85800
O36         O  0.24285567  0.69016185  0.38936031    -0.66300
O37         O  0.35886464  0.85373405  0.35404242    -0.85600
C38         C  0.22123819  0.71222040  0.37120498     0.86600
C39         C  0.28389877  0.63913257  0.32572510     1.08200
H40         H  0.27787109  0.79800942  0.35255169     0.40000
O41         O  0.30409600  0.78517855  0.34592825    -1.08300
O42         O  0.39141826  0.76550048  0.36220802    -0.64900
Ni43       Ni  0.33445334  0.76508415  0.38050321     1.26300
O44         O  0.23703868  0.72897248  0.34758562    -0.65200
O45         O  0.34276373  0.81991692  0.39667192    -0.77400
C46         C  0.34086071  0.72188447  0.43481751     0.86000
O47         O  0.36125772  0.74326605  0.41549025    -0.64600
Ni48       Ni  0.33354550  0.82445084  0.32035016     1.27400
Ni49       Ni  0.29346733  0.73023691  0.32941280     1.26100
H50         H  0.35054358  0.69910295  0.35651582     0.40500
O51         O  0.33956023  0.77437728  0.02913837    -0.79400
O52         O  0.30991824  0.79616204  0.16970283    -0.64100
O53         O  0.33837318  0.75209113  0.09183997    -1.10700
C54         C  0.19676576  0.71218369  0.08538853     1.07500
O55         O  0.25955475  0.75008205  0.18206555    -0.77300
O56         O  0.27330721  0.68472703  0.14337567    -0.64900
Ni57       Ni  0.37327323  0.78481461  0.06512934     1.34900
C58         C  0.28805821  0.66556121  0.12038696     0.86200
O59         O  0.38176451  0.78241732  0.14170831    -0.77800
O60         O  0.41271744  0.79711998  0.09732802    -0.88100
C61         C  0.28627495  0.77855312  0.18907161     0.85800
O62         O  0.34479478  0.83762529  0.07099409    -0.66300
O63         O  0.20031598  0.70606059  0.11345637    -0.85600
C64         C  0.32923780  0.85487364  0.09448994     0.86600
C65         C  0.41359619  0.79294915  0.12596049     1.08200
H66         H  0.25255728  0.79142031  0.11588832     0.40000
O67         O  0.26712062  0.76491267  0.11888404    -1.08300
O68         O  0.28793723  0.68179869  0.09402176    -0.64900
Ni69       Ni  0.28169973  0.74070506  0.08022867     1.26300
O70         O  0.32152187  0.83432187  0.11855933    -0.65200
O71         O  0.22469903  0.73078540  0.06966193    -0.77400
C72         C  0.31610900  0.74324496  0.02137021     0.86000
O73         O  0.29748137  0.72043090  0.04093223    -0.64600
Ni74       Ni  0.23366652  0.72994073  0.14542101     1.27400
Ni75       Ni  0.32449561  0.77512309  0.13069130     1.26100
H76         H  0.35298641  0.72564109  0.09495332     0.40500
C77         C  0.53086783  0.80899096  0.14330514     0.81700
N78         N  0.56637542  0.81249984  0.12630792    -0.76600
C79         C  0.60497135  0.81105425  0.13923109     0.84100
N80         N  0.60813703  0.80593799  0.16942865    -0.76500
C81         C  0.57290790  0.80228743  0.18675694     0.84200
N82         N  0.53405888  0.80353842  0.17363515    -0.78300
C83         C  0.52320955  0.76930421  0.31889687     0.81700
N84         N  0.51858597  0.77399877  0.28868444    -0.76600
C85         C  0.55247038  0.77847888  0.27032541     0.84100
N86         N  0.59184556  0.77769664  0.28222338    -0.76500
C87         C  0.59789021  0.77289390  0.31230855     0.84200
N88         N  0.56317830  0.76949382  0.33092605    -0.78300
O89         O  0.81148200  0.79699760  0.25350116    -0.79400
O90         O  0.76799454  0.76087278  0.39126714    -0.64100
O91         O  0.82314416  0.79220890  0.31734925    -1.10700
C92         C  0.84851989  0.64627087  0.30531951     1.07500
O93         O  0.81278097  0.70986666  0.40374259    -0.77300
O94         O  0.88198191  0.70751206  0.36819387    -0.64900
Ni95       Ni  0.79467674  0.82822639  0.28939876     1.34900
C96         C  0.90420711  0.72758565  0.34908304     0.86200
O97         O  0.78784058  0.83418207  0.36596780    -0.77800
O98         O  0.77629698  0.86542459  0.32141242    -0.88100
C99         C  0.78496755  0.73733580  0.41089004     0.85800
O100        O  0.74244579  0.79784753  0.28992073    -0.66300
O101        O  0.84547274  0.64402514  0.33392494    -0.85600
C102        C  0.72070471  0.78294587  0.31155650     0.86600
C103        C  0.77892155  0.86622175  0.35003668     1.08200
H104        H  0.77618286  0.70825748  0.33356597     0.40000
O105        O  0.80288776  0.72024628  0.33992878    -1.08300
O106        O  0.89043948  0.73818543  0.32316323    -0.64900
Ni107      Ni  0.83434382  0.73616369  0.30422312     1.26300
O108        O  0.73617206  0.77657043  0.33765161    -0.65200
O109        O  0.84312709  0.68002352  0.29074906    -0.77400
C110        C  0.84349451  0.77381805  0.24767498     0.86000
O111        O  0.86251516  0.75397842  0.26827859    -0.64600
Ni112      Ni  0.82821023  0.68027413  0.36686475     1.27400
Ni113      Ni  0.79392309  0.77700866  0.35378258     1.26100
H114        H  0.84943299  0.80598541  0.32271541     0.40500
O115        O  0.87180563  0.74779974  0.15327825    -0.79400
O116        O  0.81390573  0.70301110  0.02064850    -0.64100
O117        O  0.85916209  0.75986277  0.08968967    -1.10700
C118        C  0.71685415  0.79152918  0.11133642     1.07500
O119        O  0.76567873  0.75179291  0.01018285    -0.77300
O120        O  0.77165621  0.82165061  0.04453088    -0.64900
Ni121      Ni  0.89888773  0.73188110  0.11535446     1.34900
C122        C  0.79355222  0.84327952  0.06288901     0.86200
O123        O  0.89206869  0.71866010  0.03902173    -0.77800
O124        O  0.93138418  0.71345652  0.08086786    -0.88100
C125        C  0.78926870  0.72109060  0.00233404     0.85800
O126        O  0.86917841  0.67957161  0.11724641    -0.66300
O127        O  0.71112505  0.78960540  0.08300328    -0.85600
C128        C  0.84720394  0.65880121  0.09846955     0.86600
C129        C  0.92666231  0.71097800  0.05237033     1.08200
H130        H  0.77066752  0.71668784  0.08015952     0.40000
O131        O  0.78345959  0.74247953  0.07276130    -1.08300
O132        O  0.80636505  0.82890646  0.08807380    -0.64900
Ni133      Ni  0.80552112  0.77294823  0.10679184     1.26300
O134        O  0.83556702  0.67361959  0.07324136    -0.65200
O135        O  0.75171126  0.78352411  0.12389696    -0.77400
C136        C  0.84864899  0.77916054  0.16071076     0.86000
O137        O  0.82907968  0.80022690  0.14109196    -0.64600
Ni138      Ni  0.74179229  0.76964091  0.04826284     1.27400
Ni139      Ni  0.83740107  0.72978410  0.05534969     1.26100
H140        H  0.87251591  0.78556578  0.08262490     0.40500
C141        C  0.84014743  0.53916931  0.11057301     0.81700
N142        N  0.84193649  0.50001027  0.09713394    -0.76600
C143        C  0.84501225  0.46441087  0.11462824     0.84100
N144        N  0.84821208  0.46883859  0.14508105    -0.76500
C145        C  0.84716670  0.50756567  0.15826773     0.84200
N146        N  0.84272096  0.54206862  0.14097528    -0.78300
C147        C  0.87466876  0.53152605  0.28512034     0.81700
N148        N  0.87029938  0.52787998  0.25470757    -0.76600
C149        C  0.87536077  0.48940483  0.24111399     0.84100
N150        N  0.88424313  0.45505074  0.25807292    -0.76500
C151        C  0.88829129  0.45876959  0.28836364     0.84200
N152        N  0.88333074  0.49689838  0.30167664    -0.78300
C153        C  0.78926826  0.95814989  0.40487532     0.81700
N154        N  0.80706065  0.96540728  0.43216781    -0.76600
C155        C  0.81119048  0.00568845  0.44273164     0.84100
N156        N  0.79723373  0.03837402  0.42596530    -0.76500
C157        C  0.77985584  0.03126903  0.39852780     0.84200
N158        N  0.77629259  0.99126961  0.38797032    -0.78300
C159        C  0.80984294  0.96457863  0.05758544     0.81700
N160        N  0.81696381  0.00009638  0.07473071    -0.76600
C161        C  0.81728035  0.03916369  0.06142193     0.84100
N162        N  0.80902956  0.04218624  0.03154690    -0.76500
C163        C  0.80074651  0.00759188  0.01469097     0.84200
N164        N  0.80134218  0.96895325  0.02773354    -0.78300
O165        O  0.83911944  0.29119066  0.41557158    -0.79400
O166        O  0.86880775  0.23414958  0.28199016    -0.64100
O167        O  0.82125625  0.28381598  0.35275168    -1.10700
C168        C  0.77814650  0.14258060  0.36960167     1.07500
O169        O  0.80806439  0.20321240  0.27033860    -0.77300
O170        O  0.74164585  0.19850442  0.31080679    -0.64900
Ni171      Ni  0.85431651  0.31960673  0.37835550     1.34900
C172        C  0.72460060  0.22393073  0.32957133     0.86200
O173        O  0.86617677  0.31235145  0.30239659    -0.77800
O174        O  0.87219358  0.35247174  0.34410134    -0.88100
C175        C  0.84332819  0.22000133  0.26250952     0.85800
O176        O  0.90490174  0.28699726  0.37729224    -0.66300
O177        O  0.78227919  0.13652816  0.34121460    -0.85600
C178        C  0.92140213  0.26133457  0.35861620     0.86600
C179        C  0.87497258  0.34680848  0.31564959     1.08200
H180        H  0.85087310  0.19163809  0.33978762     0.40000
O181        O  0.82693863  0.20808129  0.33313741    -1.08300
O182        O  0.74505299  0.24085019  0.35128242    -0.64900
Ni183      Ni  0.80112087  0.23149354  0.36832885     1.26300
O184        O  0.90298144  0.24916148  0.33464167    -0.65200
O185        O  0.78301860  0.17805850  0.38274810    -0.77400
C186        C  0.80553826  0.27194323  0.42387165     0.86000
O187        O  0.78008273  0.25619226  0.40479720    -0.64600
Ni188      Ni  0.79562924  0.17170181  0.30715064     1.27400
Ni189      Ni  0.84730432  0.25978766  0.31752943     1.26100
H190        H  0.79732358  0.30038006  0.34624550     0.40500
O191        O  0.78989250  0.25021508  0.01763393    -0.79400
O192        O  0.82633071  0.20206904  0.15432900    -0.64100
O193        O  0.79817175  0.25713541  0.08056936    -1.10700
C194        C  0.94492755  0.28643685  0.07768922     1.07500
O195        O  0.86652341  0.25468845  0.17053824    -0.77300
O196        O  0.87218888  0.32191209  0.13386853    -0.64900
Ni197      Ni  0.76396170  0.22545803  0.05267956     1.34900
C198        C  0.85656712  0.34237382  0.11211092     0.86200
O199        O  0.75517624  0.21895408  0.12778566    -0.77800
O200        O  0.73103254  0.19687879  0.08347392    -0.88100
C201        C  0.84303520  0.22267389  0.17563079     0.85800
O202        O  0.80353805  0.18045533  0.05065105    -0.66300
O203        O  0.94214623  0.28702292  0.10628543    -0.85600
C204        C  0.81703750  0.15822383  0.07225520     0.86600
C205        C  0.72781876  0.20054463  0.11192386     1.08200
H206        H  0.88336518  0.21455793  0.10198052     0.40000
O207        O  0.86872839  0.24059518  0.10673759    -1.08300
O208        O  0.85125218  0.32629964  0.08593141    -0.64900
Ni209      Ni  0.85609774  0.26865172  0.06960041     1.26300
O210        O  0.81705671  0.17142863  0.09952007    -0.65200
O211        O  0.91420309  0.27787303  0.06026041    -0.77400
C212        C  0.81823615  0.27752898  0.01138757     0.86000
O213        O  0.84281715  0.29294697  0.03121693    -0.64600
Ni214      Ni  0.90179717  0.26978076  0.13634742     1.27400
Ni215      Ni  0.81190565  0.22839143  0.11728950     1.26100
H216        H  0.78365144  0.28320006  0.08542505     0.40500
C217        C  0.54438080  0.16570852  0.13203045     0.81700
N218        N  0.58116024  0.16152612  0.11648824    -0.76600
C219        C  0.61839282  0.15994877  0.13125427     0.84100
N220        N  0.61865038  0.16210940  0.16175143    -0.76500
C221        C  0.58222204  0.16640055  0.17758179     0.84200
N222        N  0.54491050  0.16888322  0.16265552    -0.78300
C223        C  0.61012852  0.21372767  0.29881909     0.81700
N224        N  0.60204726  0.20277393  0.26990788    -0.76600
C225        C  0.56234714  0.20378745  0.25865736     0.84100
N226        N  0.52995503  0.21570553  0.27679725    -0.76500
C227        C  0.53673237  0.22605773  0.30619416     0.84200
N228        N  0.57712753  0.22449148  0.31751417    -0.78300
C229        C  0.39759763  0.96136246  0.40164710     0.81700
N230        N  0.40304220  0.99512203  0.38342754    -0.76600
C231        C  0.40141662  0.03479009  0.39473754     0.84100
N232        N  0.39456042  0.04074589  0.42471002    -0.76500
C233        C  0.38934285  0.00721082  0.44327804     0.84200
N234        N  0.39023302  0.96734082  0.43157276    -0.78300
C235        C  0.33914872  0.03562101  0.05811416     0.81700
N236        N  0.35567882  0.03272751  0.02972906    -0.76600
C237        C  0.35788423  0.99503547  0.01514703     0.84100
N238        N  0.34290726  0.96002028  0.02872618    -0.76500
C239        C  0.32684849  0.96133047  0.05698049     0.84200
N240        N  0.32508827  0.99933633  0.07216070    -0.78300
C241        C  0.03815204  0.26408122  0.36809948     0.81700
N242        N  0.07819913  0.25004870  0.36101052    -0.76600
C243        C  0.11126880  0.26104856  0.37948193     0.84100
N244        N  0.10400953  0.28599911  0.40379390    -0.76500
C245        C  0.06494009  0.30084096  0.41015080     0.84200
N246        N  0.03226572  0.28931239  0.39257881    -0.78300
C247        C  0.11298997  0.29533749  0.03466385     0.81700
N248        N  0.12163959  0.28558335  0.00545051    -0.76600
C249        C  0.08982605  0.27657399  0.98617243     0.84100
N250        N  0.04902424  0.27802308  0.99604514    -0.76500
C251        C  0.04020669  0.28826929  0.02504830     0.84200
N252        N  0.07236947  0.29630015  0.04440223    -0.78300
O253        O  0.33946217  0.19929149  0.26383721    -0.79400
O254        O  0.36684668  0.25310421  0.40020436    -0.64100
O255        O  0.32069029  0.20668200  0.32748882    -1.10700
C256        C  0.26616523  0.34188420  0.31554402     1.07500
O257        O  0.30586630  0.28255294  0.41361234    -0.77300
O258        O  0.24096277  0.26742130  0.37431462    -0.64900
Ni259      Ni  0.35399475  0.17077278  0.30146625     1.34900
C260        C  0.22397099  0.25321934  0.35040937     0.86200
O261        O  0.36584485  0.17701634  0.37708686    -0.77800
O262        O  0.37150732  0.13690191  0.33543435    -0.88100
C263        C  0.34212746  0.26767045  0.42032682     0.85800
O264        O  0.40471913  0.20340434  0.30327053    -0.66300
O265        O  0.26112446  0.34060046  0.34410890    -0.85600
C266        C  0.42028531  0.22967426  0.32190869     0.86600
C267        C  0.37498242  0.14286753  0.36379533     1.08200
H268        H  0.34695214  0.30086284  0.34613899     0.40000
O269        O  0.32394375  0.28143231  0.35030005    -1.08300
O270        O  0.24442424  0.25008506  0.32577400    -0.64900
Ni271      Ni  0.30254504  0.26019449  0.31300863     1.26300
O272        O  0.40095148  0.24221291  0.34569042    -0.65200
O273        O  0.28604759  0.31425265  0.30032270    -0.77400
C274        C  0.30732880  0.22104267  0.25606039     0.86000
O275        O  0.28372809  0.23880659  0.27535368    -0.64600
Ni276      Ni  0.28497516  0.30904069  0.37707242     1.27400
Ni277      Ni  0.34574069  0.22930413  0.36362985     1.26100
H278        H  0.29609598  0.19040954  0.33341630     0.40500
O279        O  0.28663922  0.25470913  0.16267108    -0.79400
O280        O  0.33574339  0.30570585  0.03024451    -0.64100
O281        O  0.29326621  0.24512644  0.09875065    -1.10700
C282        C  0.43506552  0.20476094  0.11093839     1.07500
O283        O  0.37445584  0.25126983  0.01460897    -0.77300
O284        O  0.37423952  0.17975926  0.04779032    -0.64900
Ni285      Ni  0.25447595  0.26974375  0.12689240     1.34900
C286        C  0.35300893  0.15787884  0.06646848     0.86200
O287        O  0.25924317  0.29389212  0.05287841    -0.77800
O288        O  0.21803208  0.28577808  0.09406049    -0.88100
C289        C  0.35282615  0.28439063  0.00904218     0.85800
O290        O  0.27880633  0.32513113  0.12853977    -0.66300
O291        O  0.43897412  0.21028681  0.08253358    -0.85600
C292        C  0.30315682  0.34694216  0.11180460     0.86600
C293        C  0.22365393  0.29446592  0.06620059     1.08200
H294        H  0.38321967  0.28355731  0.08659026     0.40000
O295        O  0.36782796  0.25943806  0.07879101    -1.08300
O296        O  0.34131043  0.17224076  0.09218370    -0.64900
Ni297      Ni  0.34712017  0.22748821  0.11256087     1.26300
O298        O  0.31954475  0.33235445  0.08734129    -0.65200
O299        O  0.40157023  0.21232227  0.12574958    -0.77400
C300        C  0.30822260  0.22161570  0.16850376     0.86000
O301        O  0.32509066  0.20004402  0.14754115    -0.64600
Ni302      Ni  0.40436631  0.23197158  0.05030266     1.27400
Ni303      Ni  0.31381041  0.27799875  0.06549325     1.26100
H304        H  0.27892609  0.22075281  0.09035889     0.40500
C305        C  0.31655780  0.20940409  0.20035200    -0.15000
C306        C  0.29733381  0.22874760  0.22381304    -0.30100
H307        H  0.33982421  0.18487338  0.20455479     0.14100
H308        H  0.27335378  0.25247737  0.21927062     0.14600
C309        C  0.35487818  0.26426527  0.45246778    -0.15000
C310        C  0.33343247  0.28313909  0.47525473    -0.27700
H311        H  0.38198037  0.24445737  0.45756210     0.14100
H312        H  0.30716852  0.30401232  0.47010897     0.14600
C313        C  0.18738268  0.30329926  0.04698573    -0.15000
C314        C  0.14736562  0.29959401  0.05649812    -0.30100
H315        H  0.19398608  0.30823797  0.02319019     0.14100
H316        H  0.14012106  0.29549900  0.08025949     0.14600
C317        C  0.15538559  0.24579106  0.37619506    -0.15000
C318        C  0.17741923  0.24473832  0.35029647    -0.30100
H319        H  0.17320091  0.24538895  0.39708139     0.14100
H320        H  0.16077352  0.24596397  0.32898102     0.14600
C321        C  0.05649930  0.32331384  0.43847682    -0.15000
C322        C  0.08784019  0.33256066  0.45768882    -0.30100
H323        H  0.02359020  0.32616814  0.44551967     0.14100
H324        H  0.12069914  0.33000307  0.45045734     0.14600
C325        C  0.33756437  0.07859538  0.07296179    -0.15000
C326        C  0.34291576  0.11397008  0.05602115    -0.30100
H327        H  0.33487732  0.08100307  0.09728415     0.14100
H328        H  0.34541290  0.10993942  0.03175981     0.14600
C329        C  0.39917321  0.07031119  0.37366202    -0.15000
C330        C  0.38863168  0.10877633  0.38356521    -0.30100
H331        H  0.40111012  0.06377142  0.34964942     0.14100
H332        H  0.38671112  0.11501232  0.40763748     0.14600
C333        C  0.37903532  0.01496884  0.47530039    -0.15000
C334        C  0.36805842  0.98347244  0.49393927    -0.30100
H335        H  0.37926079  0.04747235  0.48342954     0.14100
H336        H  0.36777338  0.95102163  0.48569283     0.14600
C337        C  0.46241174  0.24673107  0.31357313    -0.15000
C338        C  0.49878008  0.23250152  0.32582414    -0.30100
H339        H  0.46408669  0.26012168  0.29108731     0.14100
H340        H  0.49836312  0.21793796  0.34793100     0.14600
C341        C  0.50574624  0.17380813  0.11497177    -0.15000
C342        C  0.47113132  0.18949468  0.12827349    -0.30100
H343        H  0.50719115  0.17063285  0.09060491     0.14100
H344        H  0.46951925  0.19251053  0.15264714     0.14600
C345        C  0.55437957  0.19103365  0.22710294    -0.15000
C346        C  0.58540556  0.17390820  0.21019915    -0.30100
H347        H  0.52338716  0.19692517  0.21748912     0.14100
H348        H  0.61628802  0.16835585  0.22010661     0.14600
C349        C  0.69133830  0.18320975  0.12798947    -0.15000
C350        C  0.65787060  0.16589575  0.11423175    -0.30100
H351        H  0.69083651  0.18822559  0.15222615     0.14100
H352        H  0.65747810  0.16226125  0.08989321     0.14600
C353        C  0.98687593  0.29486167  0.06484286    -0.15000
C354        C  0.99619297  0.28730500  0.03584508    -0.30100
H355        H  0.01171012  0.30411224  0.08041973     0.14100
H356        H  0.97161107  0.27747999  0.02024729     0.14600
C357        C  0.67830601  0.23302706  0.32594216    -0.15000
C358        C  0.65425841  0.20680185  0.30898100    -0.30100
H359        H  0.66430906  0.26057982  0.33675403     0.14100
H360        H  0.66959898  0.17986369  0.29824934     0.14600
C361        C  0.96363206  0.24513854  0.36694956    -0.15000
C362        C  0.99948274  0.25239547  0.35091372    -0.30100
H363        H  0.96702992  0.23907540  0.39092045     0.14100
H364        H  0.99810012  0.25978477  0.32709438     0.14600
C365        C  0.85442102  0.22706147  0.23048793    -0.15000
C366        C  0.83282215  0.21069872  0.20714269    -0.30100
H367        H  0.88141869  0.24759790  0.22602746     0.14100
H368        H  0.80670732  0.18893679  0.21121185     0.14600
C369        C  0.79753499  0.26444732  0.45643538    -0.15000
C370        C  0.82396693  0.27798244  0.47839476    -0.30100
H371        H  0.77047627  0.24473805  0.46231319     0.14100
H372        H  0.85062589  0.29832425  0.47270677     0.14600
C373        C  0.82158186  0.07941555  0.07886901    -0.15000
C374        C  0.83165720  0.11529249  0.06388970    -0.30100
H375        H  0.81003847  0.08078385  0.10192758     0.14100
H376        H  0.84282395  0.11242638  0.04075897     0.14600
C377        C  0.77046243  0.06669880  0.37860277    -0.15000
C378        C  0.77056030  0.10634325  0.38920314    -0.30100
H379        H  0.76881312  0.06048546  0.35454781     0.14100
H380        H  0.77128188  0.11209813  0.41335717     0.14600
C381        C  0.82855791  0.01439802  0.47277186    -0.15000
C382        C  0.84816927  0.98438897  0.48861002    -0.30100
H383        H  0.82134493  0.04482400  0.48309403     0.14100
H384        H  0.79165511  0.04495532  0.97365636     0.14600
C385        C  0.89126288  0.42145987  0.30757672    -0.15000
C386        C  0.88657651  0.38244332  0.29634820    -0.30100
H387        H  0.89133399  0.42659842  0.33179314     0.14100
H388        H  0.88595555  0.37733659  0.27212839     0.14600
C389        C  0.84743924  0.42077561  0.10126084    -0.15000
C390        C  0.84431970  0.38660593  0.11946754    -0.30100
H391        H  0.85472493  0.41682230  0.07749392     0.14100
H392        H  0.83747320  0.39188011  0.14319512     0.14600
C393        C  0.86901500  0.48333132  0.20850484    -0.15000
C394        C  0.85282725  0.51349710  0.19092440    -0.30100
H395        H  0.87720498  0.45272949  0.19884463     0.14100
H396        H  0.84507841  0.54427850  0.20046737     0.14600
C397        C  0.83361451  0.61640864  0.10842990    -0.15000
C398        C  0.83971184  0.57960753  0.09323898    -0.30100
H399        H  0.82494945  0.61525007  0.13212215     0.14100
H400        H  0.84923038  0.57975795  0.06970795     0.14600
C401        C  0.80363506  0.88692491  0.05302007    -0.15000
C402        C  0.80881261  0.92121007  0.07101902    -0.30100
H403        H  0.80196137  0.89155289  0.02882820     0.14100
H404        H  0.80965624  0.91763210  0.09531270     0.14600
C405        C  0.86720549  0.57135099  0.30137796    -0.15000
C406        C  0.85835946  0.60787249  0.28776607    -0.30100
H407        H  0.86827770  0.57010231  0.32581930     0.14100
H408        H  0.85779360  0.60956746  0.26333310     0.14600
C409        C  0.78699677  0.91486322  0.39282067    -0.15000
C410        C  0.77287041  0.90725090  0.36485442    -0.30100
H411        H  0.80018544  0.88942334  0.40620478     0.14100
H412        H  0.76079793  0.93295721  0.35119161     0.14600
C413        C  0.85730339  0.76733257  0.21590498    -0.15000
C414        C  0.84107158  0.78975564  0.19291956    -0.30100
H415        H  0.87983716  0.74216948  0.21122427     0.14100
H416        H  0.81889471  0.81517422  0.19778960     0.14600
C417        C  0.77332051  0.74347683  0.44335519    -0.15000
C418        C  0.79065640  0.72014690  0.46559742    -0.30100
H419        H  0.75175336  0.76903161  0.44914197     0.14100
H420        H  0.81242054  0.69487666  0.45951138     0.14600
C421        C  0.64238066  0.77371117  0.32407459    -0.15000
C422        C  0.67560954  0.77351452  0.30454910    -0.30100
H423        H  0.64773915  0.77709503  0.34809017     0.14100
H424        H  0.66909702  0.77060706  0.28063177     0.14600
C425        C  0.64258400  0.80993944  0.11986718    -0.15000
C426        C  0.68105947  0.80210579  0.13099960    -0.30100
H427        H  0.63785187  0.81169853  0.09568442     0.14100
H428        H  0.68581699  0.80021419  0.15517816     0.14600
C429        C  0.54588464  0.78571643  0.23786445    -0.15000
C430        C  0.57817272  0.79514929  0.21927977    -0.30100
H431        H  0.51378950  0.78384171  0.22922916     0.14100
H432        H  0.61020465  0.79697778  0.22805159     0.14600
C433        C  0.48988983  0.80789806  0.12782952    -0.15000
C434        C  0.45350653  0.79966583  0.14222103    -0.30100
H435        H  0.49015499  0.81158637  0.10350737     0.14100
H436        H  0.45327040  0.79548773  0.16650373     0.14600
C437        C  0.31039149  0.92028317  0.06833303    -0.15000
C438        C  0.32293188  0.90171225  0.09392628    -0.30100
H439        H  0.29799259  0.89947732  0.05086038     0.14100
H440        H  0.33627864  0.92066248  0.11200807     0.14600
C441        C  0.44659616  0.75785002  0.32464421    -0.15000
C442        C  0.48391151  0.76771343  0.33785678    -0.30100
H443        H  0.44718161  0.74665115  0.30146597     0.14100
H444        H  0.48468082  0.77957998  0.36082733     0.14600
C445        C  0.37179454  0.88805903  0.40049801    -0.15000
C446        C  0.39298581  0.91982118  0.38737764    -0.30100
H447        H  0.36230445  0.89018801  0.42401733     0.14100
H448        H  0.40213710  0.91737380  0.36379579     0.14600
C449        C  0.27029339  0.77121032  0.24365173    -0.15000
C450        C  0.29187275  0.79030977  0.22116393    -0.30100
H451        H  0.24568059  0.74829430  0.23830643     0.14100
H452        H  0.31691560  0.81274735  0.22651672     0.14600
C453        C  0.35173866  0.72804233  0.46714307    -0.15000
C454        C  0.33224778  0.70745628  0.48993860    -0.30100
H455        H  0.37508199  0.75230865  0.47236349     0.14100
H456        H  0.30888134  0.68319063  0.48480068     0.14600
C457        C  0.15792575  0.69740304  0.07094014    -0.15000
C458        C  0.15499284  0.69472617  0.04097433    -0.30100
H459        H  0.13081125  0.69010972  0.08521719     0.14100
H460        H  0.18256687  0.70088488  0.02684948     0.14600
C461        C  0.00097913  0.69004433  0.04589780    -0.15000
C462        C  0.96348249  0.69961335  0.03361407    -0.30100
H463        H  0.00413351  0.68849125  0.07022049     0.14100
H464        H  0.96027343  0.70149689  0.00930411     0.14600
C465        C  0.14308727  0.72467886  0.36017534    -0.15000
C466        C  0.17577713  0.71790912  0.37934260    -0.30100
H467        H  0.14917051  0.72904836  0.33630520     0.14100
H468        H  0.16867693  0.71232746  0.40295910     0.14600
C469        C  0.98447137  0.73084114  0.34602980    -0.15000
C470        C  0.94705412  0.73989369  0.35973253    -0.30100
H471        H  0.98539468  0.72102827  0.32258024     0.14100
H472        H  0.94773983  0.74909859  0.38333932     0.14600
C473        C  0.04467744  0.70124629  0.44469064    -0.15000
C474        C  0.07688724  0.69346084  0.46348639    -0.30100
H475        H  0.01217625  0.69951254  0.45281064     0.14100
H476        H  0.10937932  0.69580404  0.45542404     0.14600
C477        C  0.24093694  0.41440572  0.31283192    -0.15000
C478        C  0.25006287  0.37791136  0.29893964    -0.30100
H479        H  0.23910430  0.41602378  0.33726266     0.14100
H480        H  0.25331164  0.37658696  0.27456944     0.14600
C481        C  0.27225838  0.56337731  0.31664178    -0.15000
C482        C  0.27728025  0.60237631  0.30568095    -0.30100
H483        H  0.27247559  0.55858730  0.34086773     0.14100
H484        H  0.27592073  0.60759344  0.28153396     0.14600
C485        C  0.30132993  0.58737749  0.10949235    -0.15000
C486        C  0.30607095  0.62306138  0.12638072    -0.30100
H487        H  0.28918962  0.58909315  0.08671719     0.14100
H488        H  0.31800560  0.61986307  0.14916044     0.14600
C489        C  0.30807816  0.42749542  0.10855891    -0.15000
C490        C  0.31282395  0.39045929  0.12361573    -0.30100
H491        H  0.30214140  0.42677282  0.08450759     0.14100
H492        H  0.31717151  0.39215211  0.14783736     0.14600
C493        C  0.29740218  0.51174649  0.20354846    -0.15000
C494        C  0.27366688  0.48421292  0.21897012    -0.30100
H495        H  0.30933478  0.53995784  0.21478238     0.14100
H496        H  0.26095318  0.45656799  0.20743546     0.14600
C497        C  0.30168332  0.46213647  0.62116719     0.81700
N498        N  0.29581149  0.45912623  0.65143684    -0.76600
C499        C  0.28993974  0.49392138  0.66870515     0.84100
N500        N  0.29051448  0.53253543  0.65563366    -0.76500
C501        C  0.29655576  0.53686046  0.62544833     0.84200
N502        N  0.30131330  0.50127901  0.60796272    -0.78300
C503        C  0.24430773  0.54786022  0.79830390     0.81700
N504        N  0.25239266  0.55154270  0.76830108    -0.76600
C505        C  0.25903657  0.51660544  0.75108533     0.84100
N506        N  0.25809001  0.47781109  0.76416199    -0.76500
C507        C  0.24968376  0.47414794  0.79411324     0.84200
N508        N  0.24298135  0.50917100  0.81100223    -0.78300
C509        C  0.08542420  0.74033595  0.86092771     0.81700
N510        N  0.08158767  0.72710791  0.88974726    -0.76600
C511        C  0.04368337  0.71758524  0.90198441     0.84100
N512        N  0.00859277  0.72194827  0.88537397    -0.76500
C513        C  0.01093567  0.73485248  0.85627062     0.84200
N514        N  0.04979121  0.74330085  0.84350235    -0.78300
C515        C  0.09915328  0.67649044  0.54410544     0.81700
N516        N  0.06004072  0.66908258  0.55540427    -0.76600
C517        C  0.02598534  0.66898693  0.53705078     0.84100
N518        N  0.03106471  0.67658109  0.50712436    -0.76500
C519        C  0.07038367  0.68332527  0.49552675     0.84200
N520        N  0.10420535  0.68351086  0.51412994    -0.78300
O521        O  0.28814857  0.72482315  0.92538402    -0.79400
O522        O  0.25768857  0.76790198  0.78885404    -0.64100
O523        O  0.30727853  0.73034342  0.86214658    -1.10700
C524        C  0.35291405  0.86970989  0.87336005     1.07500
O525        O  0.30979653  0.81083478  0.77521210    -0.77300
O526        O  0.37571251  0.79675422  0.81176446    -0.64900
Ni527      Ni  0.27607413  0.69342665  0.88840593     1.34900
C528        C  0.39503408  0.77961115  0.83344815     0.86200
O529        O  0.26895165  0.69387377  0.81223471    -0.77800
O530        O  0.26176088  0.65661916  0.85489934    -0.88100
C531        C  0.27833242  0.78721399  0.76875741     0.85800
O532        O  0.22314044  0.72200107  0.88556561    -0.66300
O533        O  0.35616854  0.86846000  0.84471536    -0.85600
C534        C  0.20549644  0.74325186  0.86494717     0.86600
C535        C  0.26083603  0.66011852  0.82623223     1.08200
H536        H  0.27127271  0.82011246  0.84383446     0.40000
O537        O  0.29647583  0.80404606  0.83909776    -1.08300
O538        O  0.37973562  0.77778585  0.86014817    -0.64900
Ni539      Ni  0.32195741  0.78537264  0.87607026     1.26300
O540        O  0.22447608  0.75502719  0.84109958    -0.65200
O541        O  0.33526743  0.84094906  0.88877484    -0.77400
C542        C  0.32009013  0.74703619  0.93329631     0.86000
O543        O  0.34324058  0.76559881  0.91386900    -0.64600
Ni544      Ni  0.33100428  0.83673221  0.81203004     1.27400
Ni545      Ni  0.28151484  0.74886941  0.82549549     1.26100
H546        H  0.33284610  0.71532679  0.85670837     0.40500
O547        O  0.36339039  0.74935981  0.52921164    -0.79400
O548        O  0.30785687  0.79808641  0.66262509    -0.64100
O549        O  0.34903278  0.73998171  0.59287620    -1.10700
C550        C  0.20634219  0.71014011  0.57466611     1.07500
O551        O  0.25809936  0.75161642  0.67517360    -0.77300
O552        O  0.26424479  0.68086686  0.64084280    -0.64900
Ni553      Ni  0.38798568  0.76920790  0.56680321     1.34900
C554        C  0.28349896  0.65860870  0.62127076     0.86200
O555        O  0.38351084  0.77821742  0.64340321    -0.77800
O556        O  0.41878765  0.79204097  0.60069389    -0.88100
C557        C  0.28388554  0.78125517  0.68201933     0.85800
O558        O  0.35436010  0.81872260  0.56366880    -0.66300
O559        O  0.20159310  0.71046999  0.60325202    -0.85600
C560        C  0.33660074  0.84085541  0.58394417     0.86600
C561        C  0.41601055  0.79082850  0.62937724     1.08200
H562        H  0.26180540  0.78579611  0.60487542     0.40000
O563        O  0.27417087  0.75955915  0.61164423    -1.08300
O564        O  0.29391764  0.67261916  0.59531417    -0.64900
Ni565      Ni  0.29448792  0.72893229  0.57698815     1.26300
O566        O  0.32923226  0.82700031  0.61036383    -0.65200
O567        O  0.24018815  0.72050242  0.56140194    -0.77400
C568        C  0.33808635  0.71949031  0.52215091     0.86000
O569        O  0.31559539  0.70104840  0.54181449    -0.64600
Ni570      Ni  0.23326743  0.73217159  0.63738392     1.27400
Ni571      Ni  0.32882643  0.77016946  0.62777055     1.26100
H572        H  0.36209169  0.71395481  0.59924171     0.40500
C573        C  0.52708829  0.82334724  0.64946478     0.81700
N574        N  0.56187692  0.82582016  0.63178518    -0.76600
C575        C  0.60069240  0.82010660  0.64351159     0.84100
N576        N  0.60484273  0.81221912  0.67347758    -0.76500
C577        C  0.57007903  0.81020513  0.69156046     0.84200
N578        N  0.53107270  0.81514880  0.67932613    -0.78300
C579        C  0.51348844  0.77076012  0.82144960     0.81700
N580        N  0.51076369  0.77907590  0.79151268    -0.76600
C581        C  0.54578850  0.78166578  0.77401153     0.84100
N582        N  0.58419995  0.77513426  0.78646681    -0.76500
C583        C  0.58812569  0.76653677  0.81631148     0.84200
N584        N  0.55254742  0.76536713  0.83413584    -0.78300
O585        O  0.79843886  0.78288509  0.75845213    -0.79400
O586        O  0.75760802  0.74021293  0.89656577    -0.64100
O587        O  0.81044537  0.77380401  0.82229149    -1.10700
C588        C  0.84647222  0.63242933  0.81376374     1.07500
O589        O  0.80811217  0.69532436  0.90955456    -0.77300
O590        O  0.87297057  0.71179736  0.87269114    -0.64900
Ni591      Ni  0.78248577  0.81236900  0.79566937     1.34900
C592        C  0.89313093  0.72513511  0.84989063     0.86200
O593        O  0.77298491  0.81303717  0.87197310    -0.77800
O594        O  0.76448306  0.84851683  0.82890612    -0.88100
C595        C  0.77761539  0.71967615  0.91636736     0.85800
O596        O  0.73006230  0.78264799  0.79612245    -0.66300
O597        O  0.85586126  0.63797816  0.84124490    -0.85600
C598        C  0.70945586  0.76423132  0.81695488     0.86600
C599        C  0.76383953  0.84599812  0.85761591     1.08200
H600        H  0.76860784  0.68581436  0.84290680     0.40000
O601        O  0.79448703  0.70137416  0.84659247    -1.08300
O602        O  0.87873210  0.72161666  0.82329424    -0.64900
Ni603      Ni  0.82038238  0.71711367  0.80912235     1.26300
O604        O  0.72546985  0.75446355  0.84237829    -0.65200
O605        O  0.82817797  0.66013670  0.79796945    -0.77400
C606        C  0.82657018  0.75546364  0.75150785     0.86000
O607        O  0.84399625  0.73268876  0.77119980    -0.64600
Ni608      Ni  0.82988313  0.66978716  0.87337601     1.27400
Ni609      Ni  0.78252843  0.75748281  0.85920871     1.26100
H610        H  0.83699807  0.78707228  0.82759867     0.40500
O611        O  0.85265678  0.72715374  0.65597619    -0.79400
O612        O  0.80729529  0.70710001  0.51645160    -0.64100
O613        O  0.84738270  0.74749507  0.59255896    -1.10700
C614        C  0.70645459  0.78613274  0.61076111     1.07500
O615        O  0.75973038  0.75731960  0.50788518    -0.77300
O616        O  0.76686088  0.82096237  0.54838245    -0.64900
Ni617      Ni  0.87976035  0.71070185  0.61776601     1.34900
C618        C  0.78984335  0.83783469  0.56850113     0.86200
O619        O  0.88301489  0.71506139  0.54059176    -0.77800
O620        O  0.91213910  0.69112839  0.58329869    -0.88100
C621        C  0.78495563  0.72857195  0.49850523     0.85800
O622        O  0.84132297  0.66434508  0.61470575    -0.66300
O623        O  0.70158526  0.78796912  0.58226425    -0.85600
C624        C  0.82412062  0.64783026  0.59171893     0.86600
C625        C  0.91281701  0.69756523  0.55486747     1.08200
H626        H  0.75823367  0.71165942  0.57536132     0.40000
O627        O  0.77258578  0.73784579  0.57058487    -1.08300
O628        O  0.80001993  0.81933096  0.59284264    -0.64900
Ni629      Ni  0.79338796  0.76175812  0.60767516     1.26300
O630        O  0.82145807  0.66668779  0.56653654    -0.65200
O631        O  0.73972575  0.77358216  0.62321066    -0.77400
C632        C  0.83180435  0.76002439  0.66386771     0.86000
O633        O  0.81496381  0.78353296  0.64444131    -0.64600
Ni634      Ni  0.73386050  0.77081888  0.54689689     1.27400
Ni635      Ni  0.82759013  0.72576362  0.55469723     1.26100
H636        H  0.86388270  0.77282211  0.58895623     0.40500
C637        C  0.81151158  0.52880365  0.59961941     0.81700
N638        N  0.82074337  0.48984849  0.58738672    -0.76600
C639        C  0.81714668  0.45428897  0.60494073     0.84100
N640        N  0.80645383  0.45867451  0.63440526    -0.76500
C641        C  0.79829504  0.49691177  0.64657474     0.84200
N642        N  0.80066455  0.53151778  0.62914467    -0.78300
C643        C  0.83883431  0.53546662  0.76502882     0.81700
N644        N  0.82508807  0.52498771  0.73725982    -0.76600
C645        C  0.82139120  0.48376781  0.72906584     0.84100
N646        N  0.83167553  0.45301365  0.74889471    -0.76500
C647        C  0.84483042  0.46355839  0.77706408     0.84200
N648        N  0.84804967  0.50468611  0.78507059    -0.78300
C649        C  0.74826167  0.95815748  0.88608111     0.81700
N650        N  0.75660769  0.95341907  0.91588900    -0.76600
C651        C  0.76359763  0.98768278  0.93366493     0.84100
N652        N  0.76246115  0.02702917  0.92141827    -0.76500
C653        C  0.75361587  0.03180801  0.89171940     0.84200
N654        N  0.74687085  0.99735446  0.87418538    -0.78300
C655        C  0.83615510  0.95098311  0.56672360     0.81700
N656        N  0.83434188  0.98880598  0.58188260    -0.76600
C657        C  0.84180681  0.02584464  0.56666198     0.84100
N658        N  0.84873337  0.02442849  0.53637459    -0.76500
C659        C  0.85066269  0.98699990  0.52151661     0.84200
N660        N  0.84507961  0.95090188  0.53687890    -0.78300
O661        O  0.83797058  0.29990535  0.91488528    -0.79400
O662        O  0.86529684  0.24163622  0.78169104    -0.64100
O663        O  0.81588848  0.28747621  0.85307070    -1.10700
C664        C  0.78216364  0.14529483  0.87251382     1.07500
O665        O  0.80877451  0.20273803  0.77118133    -0.77300
O666        O  0.74321210  0.20356015  0.81182875    -0.64900
Ni667      Ni  0.84448624  0.32932902  0.87662523     1.34900
C668        C  0.72554701  0.22484807  0.83277827     0.86200
O669        O  0.85438735  0.31932632  0.80130468    -0.77800
O670        O  0.85211492  0.36357241  0.84112657    -0.88100
C671        C  0.84192536  0.22279299  0.76285600     0.85800
O672        O  0.90001306  0.30628832  0.87272182    -0.66300
O673        O  0.78153560  0.14153620  0.84386593    -0.85600
C674        C  0.91816778  0.28014933  0.85511076     0.86600
C675        C  0.85555988  0.35596165  0.81292013     1.08200
H676        H  0.85403469  0.19748630  0.83927247     0.40000
O677        O  0.82831863  0.21214571  0.83397252    -1.08300
O678        O  0.74538332  0.23758013  0.85605449    -0.64900
Ni679      Ni  0.80350056  0.23391806  0.87028971     1.26300
O680        O  0.89940986  0.26174563  0.83337673    -0.65200
O681        O  0.79228695  0.17916707  0.88629885    -0.77400
C682        C  0.80671419  0.27819652  0.92471262     0.86000
O683        O  0.78275222  0.25780177  0.90696580    -0.64600
Ni684      Ni  0.79609872  0.17454302  0.80915771     1.27400
Ni685      Ni  0.84236432  0.26550328  0.81744807     1.26100
H686        H  0.78962146  0.30037824  0.84691869     0.40500
O687        O  0.79424908  0.23361432  0.51603158    -0.79400
O688        O  0.83022543  0.19366044  0.65502150    -0.64100
O689        O  0.79919865  0.24299884  0.57940889    -1.10700
C690        C  0.94172217  0.28950524  0.58075508     1.07500
O691        O  0.85899589  0.25361986  0.67030996    -0.77300
O692        O  0.86247882  0.31887022  0.63203366    -0.64900
Ni693      Ni  0.76754887  0.20943624  0.55112180     1.34900
C694        C  0.84599486  0.33573784  0.60905932     0.86200
O695        O  0.75873184  0.20046668  0.62665247    -0.77800
O696        O  0.73351739  0.18205671  0.58167549    -0.88100
C697        C  0.84204048  0.21804237  0.67608209     0.85800
O698        O  0.80782644  0.16485614  0.55105122    -0.66300
O699        O  0.93724573  0.28887928  0.60919066    -0.85600
C700        C  0.82478343  0.14563502  0.57294183     0.86600
C701        C  0.73084274  0.18392998  0.61022452     1.08200
H702        H  0.88757059  0.21137957  0.60399367     0.40000
O703        O  0.86954617  0.23558143  0.60760984    -1.08300
O704        O  0.84368709  0.31732493  0.58359700    -0.64900
Ni705      Ni  0.85621859  0.26038339  0.56947201     1.26300
O706        O  0.82607403  0.16073000  0.59971937    -0.65200
O707        O  0.91357708  0.27715859  0.56209449    -0.77400
C708        C  0.81959095  0.26389474  0.51020740     0.86000
O709        O  0.84231466  0.28149245  0.53026301    -0.64600
Ni710      Ni  0.89621827  0.26977954  0.63773258     1.27400
Ni711      Ni  0.81418309  0.21673560  0.61698161     1.26100
H712        H  0.78230657  0.26769157  0.58399151     0.40500
C713        C  0.54409055  0.18553017  0.63273227     0.81700
N714        N  0.57921517  0.17577235  0.61654531    -0.76600
C715        C  0.61661491  0.16997737  0.63052117     0.84100
N716        N  0.61884595  0.17448227  0.66086525    -0.76500
C717        C  0.58405901  0.18460594  0.67724737     0.84200
N718        N  0.54651966  0.19041985  0.66312136    -0.78300
C719        C  0.61228630  0.22162627  0.80063905     0.81700
N720        N  0.60521006  0.21430410  0.77104502    -0.76600
C721        C  0.56652174  0.22001426  0.75889373     0.84100
N722        N  0.53421293  0.23276446  0.77672750    -0.76500
C723        C  0.53988210  0.23955428  0.80671228     0.84200
N724        N  0.57924390  0.23348258  0.81897245    -0.78300
C725        C  0.40071071  0.97752437  0.89157041     0.81700
N726        N  0.40954054  0.01254621  0.87522697    -0.76600
C727        C  0.41367139  0.05061608  0.88902613     0.84100
N728        N  0.40887407  0.05356596  0.91941664    -0.76500
C729        C  0.40024122  0.01872911  0.93598354     0.84200
N730        N  0.39570141  0.98079378  0.92187793    -0.78300
C731        C  0.34294001  0.03492370  0.56768722     0.81700
N732        N  0.35316738  0.02955384  0.53803961    -0.76600
C733        C  0.35610865  0.99036979  0.52571180     0.84100
N734        N  0.34842680  0.95630987  0.54300931    -0.76500
C735        C  0.33821129  0.96019854  0.57258112     0.84200
N736        N  0.33607696  0.99983549  0.58526270    -0.78300
C737        C  0.03809690  0.25415892  0.85855991     0.81700
N738        N  0.07610935  0.25932204  0.84370032    -0.76600
C739        C  0.11339288  0.25709634  0.85960754     0.84100
N740        N  0.11166577  0.25169289  0.88998460    -0.76500
C741        C  0.07427019  0.24639892  0.90438388     0.84200
N742        N  0.03828063  0.24701214  0.88854984    -0.78300
C743        C  0.10637270  0.32746778  0.53915342     0.81700
N744        N  0.11284451  0.33330829  0.50920872    -0.76600
C745        C  0.07965547  0.33564185  0.49013044     0.84100
N746        N  0.03967134  0.33131386  0.50101615    -0.76500
C747        C  0.03283906  0.32553962  0.53078226     0.84200
N748        N  0.06632683  0.32341586  0.54983095    -0.78300
O749        O  0.33479247  0.20762280  0.76460613    -0.79400
O750        O  0.37396723  0.26482691  0.90087204    -0.64100
O751        O  0.32405786  0.22181496  0.82815380    -1.10700
C752        C  0.28376973  0.36309587  0.81399998     1.07500
O753        O  0.31964434  0.30530071  0.91386817    -0.77300
O754        O  0.25301791  0.29765765  0.87594873    -0.64900
Ni755      Ni  0.35798877  0.18639765  0.80212008     1.34900
C756        C  0.23432632  0.27772540  0.85498532     0.86200
O757        O  0.36398776  0.18893675  0.87837827    -0.77800
O758        O  0.38507906  0.15810696  0.83551036    -0.88100
C759        C  0.35205148  0.28352502  0.92089958     0.85800
O760        O  0.40256570  0.22672533  0.79935353    -0.66300
O761        O  0.28232742  0.36510391  0.84273256    -0.85600
C762        C  0.42269871  0.24497888  0.82039940     0.86600
C763        C  0.38218697  0.15949751  0.86414565     1.08200
H764        H  0.36027115  0.31262785  0.84422020     0.40000
O765        O  0.33508201  0.29694241  0.84972004    -1.08300
O766        O  0.25148460  0.27025259  0.82941667    -0.64900
Ni767      Ni  0.30909581  0.27640244  0.81335197     1.26300
O768        O  0.40768430  0.24943166  0.84703547    -0.65200
O769        O  0.29664743  0.33117314  0.79937397    -0.77400
C770        C  0.30434126  0.23186599  0.75739855     0.86000
O771        O  0.28590041  0.25542174  0.77653945    -0.64600
Ni772      Ni  0.30239323  0.33234145  0.87634365     1.27400
Ni773      Ni  0.35056545  0.24299069  0.86426449     1.26100
H774        H  0.29882337  0.20621309  0.83370089     0.40500
O775        O  0.27564040  0.25311788  0.66350499    -0.79400
O776        O  0.32326304  0.29662276  0.52748018    -0.64100
O777        O  0.28522578  0.24227424  0.59983294    -1.10700
C778        C  0.43168182  0.21704159  0.61290467     1.07500
O779        O  0.36698012  0.24477764  0.51490329    -0.77300
O780        O  0.37658432  0.17888563  0.55248951    -0.64900
Ni781      Ni  0.24770677  0.27165313  0.62692783     1.34900
C782        C  0.35442389  0.15758885  0.57096304     0.86200
O783        O  0.24816833  0.28158273  0.55065897    -0.77800
O784        O  0.21373664  0.29337410  0.59414761    -0.88100
C785        C  0.34247790  0.27494438  0.50759319     0.85800
O786        O  0.28103487  0.32173227  0.62850190    -0.66300
O787        O  0.43562795  0.22279114  0.58459158    -0.85600
C788        C  0.29967101  0.34288657  0.60815504     0.86600
C789        C  0.21596588  0.29353270  0.56542386     1.08200
H790        H  0.37151463  0.28594932  0.58524752     0.40000
O791        O  0.35876701  0.25977372  0.57846306    -1.08300
O792        O  0.33870976  0.17331243  0.59515117    -0.64900
Ni793      Ni  0.34088878  0.22967728  0.61378602     1.26300
O794        O  0.30657536  0.32848704  0.58166287    -0.65200
O795        O  0.39685840  0.21942363  0.62715989    -0.77400
C796        C  0.30088983  0.22318680  0.67015873     0.86000
O797        O  0.32149020  0.20326734  0.65001273    -0.64600
Ni798      Ni  0.39893508  0.23479618  0.55143320     1.27400
Ni799      Ni  0.30359919  0.27147631  0.56410672     1.26100
H800        H  0.27128066  0.21634512  0.59378658     0.40500
C801        C  0.30896034  0.21314797  0.70244398    -0.15000
C802        C  0.29080226  0.23501316  0.72536020    -0.30100
H803        H  0.33291783  0.18957941  0.70737577     0.14100
H804        H  0.26693930  0.25861632  0.72026213     0.14600
C805        C  0.36362027  0.27694730  0.95322568    -0.15000
C806        C  0.34474160  0.29660549  0.97695868    -0.27700
H807        H  0.38774132  0.25332774  0.95763817     0.14100
H808        H  0.32122045  0.32088969  0.97278273     0.14600
C809        C  0.18012470  0.30825394  0.54748026    -0.15000
C810        C  0.14229763  0.31864072  0.55914801    -0.30100
H811        H  0.18485310  0.30869842  0.52321514     0.14100
H812        H  0.13672071  0.31685566  0.58327313     0.14600
C813        C  0.15605615  0.26448028  0.84541813    -0.15000
C814        C  0.19139864  0.26173933  0.86260093    -0.30100
H815        H  0.15825340  0.27519080  0.82226319     0.14100
H816        H  0.18806340  0.25233475  0.88598603     0.14600
C817        C  0.07058524  0.24728464  0.93722140    -0.15000
C818        C  0.09974599  0.26564890  0.95473151    -0.30100
H819        H  0.04009626  0.23825813  0.94677487     0.14100
H820        H  0.13031165  0.27502007  0.94550167     0.14600
C821        C  0.34118654  0.07905663  0.58036227    -0.15000
C822        C  0.34757344  0.11267681  0.56202404    -0.30100
H823        H  0.33703727  0.08378878  0.60442446     0.14100
H824        H  0.35264671  0.10669806  0.53816396     0.14600
C825        C  0.41295052  0.08883159  0.87043627    -0.15000
C826        C  0.39931031  0.12529021  0.88237258    -0.30100
H827        H  0.41582492  0.08524463  0.84616104     0.14100
H828        H  0.39523144  0.12836717  0.90660952     0.14600
C829        C  0.38969344  0.02357031  0.96822817    -0.15000
C830        C  0.37445450  0.99096509  0.98424383    -0.30100
H831        H  0.39169408  0.05491609  0.97831288     0.14100
H832        H  0.37238801  0.95975368  0.97393710     0.14600
C833        C  0.46544848  0.26049933  0.81224338    -0.15000
C834        C  0.50125684  0.24668041  0.82555368    -0.30100
H835        H  0.46795785  0.27325707  0.78960003     0.14100
H836        H  0.49992917  0.23292738  0.84790787     0.14600
C837        C  0.50500164  0.19412453  0.61647491    -0.15000
C838        C  0.46949222  0.20682125  0.63030989    -0.30100
H839        H  0.50593018  0.19081633  0.59210409     0.14100
H840        H  0.46791300  0.20914299  0.65471576     0.14600
C841        C  0.55892759  0.21043348  0.72686799    -0.15000
C842        C  0.58904242  0.19247321  0.70964784    -0.30100
H843        H  0.52828821  0.21824079  0.71737910     0.14100
H844        H  0.61962514  0.18482314  0.71930539     0.14600
C845        C  0.69320662  0.16819880  0.62575945    -0.15000
C846        C  0.65543232  0.16688770  0.61236947    -0.30100
H847        H  0.69533802  0.16536321  0.65009351     0.14100
H848        H  0.65301599  0.17091474  0.58814462     0.14600
C849        C  0.98265855  0.30493726  0.56990264    -0.15000
C850        C  0.98995382  0.31498575  0.54118522    -0.30100
H851        H  0.00783522  0.30787869  0.58639357     0.14100
H852        H  0.96464639  0.31302209  0.52473768     0.14600
C853        C  0.67950856  0.23474929  0.82977265    -0.15000
C854        C  0.65519806  0.21094747  0.81144816    -0.30100
H855        H  0.66608547  0.26169883  0.84168438     0.14100
H856        H  0.66994542  0.18449398  0.79970333     0.14600
C857        C  0.96224555  0.26957208  0.86305187    -0.15000
C858        C  0.99565175  0.26119750  0.84447586    -0.30100
H859        H  0.96771338  0.27219586  0.88711198     0.14100
H860        H  0.99211617  0.26165743  0.82018537     0.14600
C861        C  0.85245459  0.22793719  0.73057157    -0.15000
C862        C  0.83342927  0.20672070  0.70795242    -0.30100
H863        H  0.87646801  0.25151458  0.72519406     0.14100
H864        H  0.81062982  0.18182674  0.71286624     0.14600
C865        C  0.79891221  0.27349528  0.95749625    -0.15000
C866        C  0.82377479  0.29005608  0.97929570    -0.30100
H867        H  0.77259392  0.25306098  0.96382204     0.14100
H868        H  0.85021137  0.31050342  0.97329995     0.14600
C869        C  0.83603429  0.06806377  0.58138176    -0.15000
C870        C  0.84322939  0.10389067  0.56555290    -0.30100
H871        H  0.82135851  0.06974730  0.60353079     0.14100
H872        H  0.85652244  0.10139188  0.54299509     0.14600
C873        C  0.75626984  0.07297156  0.87698382    -0.15000
C874        C  0.77157185  0.10777338  0.89048625    -0.30100
H875        H  0.74892299  0.07345880  0.85310128     0.14100
H876        H  0.77871709  0.10784537  0.91439086     0.14600
C877        C  0.77515645  0.98132421  0.96546712    -0.15000
C878        C  0.78924893  0.01319676  0.98284144    -0.30100
H879        H  0.77284277  0.94949891  0.97454378     0.14100
H880        H  0.85453403  0.95379836  0.47824259     0.14600
C881        C  0.85251463  0.43104551  0.79972070    -0.15000
C882        C  0.85851867  0.39084784  0.79154602    -0.30100
H883        H  0.85061859  0.43990734  0.82336429     0.14100
H884        H  0.86113030  0.38266809  0.76779311     0.14600
C885        C  0.82884411  0.41098787  0.59404326    -0.15000
C886        C  0.82803166  0.37832590  0.61378914    -0.30100
H887        H  0.84079562  0.40647973  0.57128443     0.14100
H888        H  0.81755642  0.38396864  0.63679041     0.14600
C889        C  0.80930128  0.47266883  0.69820328    -0.15000
C890        C  0.79561904  0.50254554  0.67921890    -0.30100
H891        H  0.81615238  0.44083495  0.69020595     0.14100
H892        H  0.78895142  0.53430521  0.68746765     0.14600
C893        C  0.80453576  0.60589298  0.59598871    -0.15000
C894        C  0.81901287  0.56946607  0.58343602    -0.30100
H895        H  0.78335498  0.60419069  0.61531588     0.14100
H896        H  0.84100748  0.57029572  0.56455180     0.14600
C897        C  0.80581217  0.88044329  0.56120201    -0.15000
C898        C  0.82182417  0.91012918  0.58011107    -0.30100
H899        H  0.80238136  0.88822432  0.53752004     0.14100
H900        H  0.82278513  0.90501180  0.60424855     0.14600
C901        C  0.84033634  0.57986942  0.77393848    -0.15000
C902        C  0.85599943  0.59127118  0.80065097    -0.30100
H903        H  0.82495181  0.60285106  0.75952978     0.14100
H904        H  0.87154159  0.56819475  0.81490494     0.14600
C905        C  0.74738032  0.92143530  0.86568629    -0.15000
C906        C  0.75336089  0.88259884  0.87644464    -0.30100
H907        H  0.74642051  0.92679419  0.84154659     0.14100
H908        H  0.75425975  0.87769754  0.90065823     0.14600
C909        C  0.83876904  0.74768592  0.71939242    -0.15000
C910        C  0.82399847  0.77065750  0.69623065    -0.30100
H911        H  0.85954953  0.72107282  0.71465017     0.14100
H912        H  0.80348932  0.79745803  0.70104101     0.14600
C913        C  0.76762761  0.72649288  0.94866185    -0.15000
C914        C  0.79059411  0.70769426  0.97041924    -0.30100
H915        H  0.74420435  0.75031165  0.95457432     0.14100
H916        H  0.81395862  0.68388645  0.96434101     0.14600
C917        C  0.63158187  0.76140215  0.82885552    -0.15000
C918        C  0.66466231  0.75495186  0.80991258    -0.30100
H919        H  0.63690307  0.76711002  0.85266545     0.14100
H920        H  0.65828929  0.74999714  0.78612864     0.14600
C921        C  0.63645700  0.81577455  0.62257565    -0.15000
C922        C  0.67246573  0.79816034  0.63149578    -0.30100
H923        H  0.63158879  0.82299136  0.59894205     0.14100
H924        H  0.67700092  0.79073419  0.65514807     0.14600
C925        C  0.54144097  0.79269640  0.74191662    -0.15000
C926        C  0.57496415  0.79956885  0.72371993    -0.30100
H927        H  0.50951908  0.79568146  0.73316006     0.14100
H928        H  0.60691342  0.79664715  0.73243902     0.14600
C929        C  0.48604422  0.82215344  0.63462404    -0.15000
C930        C  0.45252338  0.80352601  0.64740806    -0.30100
H931        H  0.48519391  0.83100176  0.61100390     0.14100
H932        H  0.45316824  0.79429057  0.67095392     0.14600
C933        C  0.33297238  0.92022637  0.59010660    -0.15000
C934        C  0.32429011  0.88403479  0.57481337    -0.30100
H935        H  0.34211118  0.91938398  0.61362528     0.14100
H936        H  0.31558780  0.88642229  0.55123303     0.14600
C937        C  0.43676388  0.76143191  0.82555253    -0.15000
C938        C  0.47349889  0.77099553  0.83950775    -0.30100
H939        H  0.43854316  0.74809686  0.80295949     0.14100
H940        H  0.47342782  0.78486376  0.86192106     0.14600
C941        C  0.37006126  0.90625014  0.88976404    -0.15000
C942        C  0.39000467  0.93812828  0.87570291    -0.30100
H943        H  0.36436559  0.90774687  0.91390412     0.14100
H944        H  0.39514875  0.93692854  0.85149635     0.14600
C945        C  0.26671811  0.77920709  0.73686466    -0.15000
C946        C  0.28893017  0.79547047  0.71369574    -0.30100
H947        H  0.24151753  0.75654893  0.73241466     0.14100
H948        H  0.31415964  0.81805512  0.71827059     0.14600
C949        C  0.32972670  0.75356693  0.96599567    -0.15000
C950        C  0.30831628  0.73430158  0.98869363    -0.30100
H951        H  0.35492469  0.77572812  0.97153002     0.14100
H952        H  0.28371670  0.71145164  0.98321146     0.14600
C953        C  0.17153076  0.69780160  0.55495482    -0.15000
C954        C  0.13453913  0.68268787  0.56496915    -0.30100
H955        H  0.17654413  0.70255143  0.53096180     0.14100
H956        H  0.12920271  0.67784732  0.58890482     0.14600
C957        C  0.98395938  0.66789945  0.55096508    -0.15000
C958        C  0.95062334  0.68565915  0.53758354    -0.30100
H959        H  0.98203202  0.65861318  0.57447225     0.14100
H960        H  0.95277620  0.69595287  0.51429569     0.14600
C961        C  0.12925564  0.74832060  0.84958566    -0.15000
C962        C  0.16058726  0.75385268  0.87004305    -0.30100
H963        H  0.13656087  0.74364552  0.82588667     0.14100
H964        H  0.15212195  0.75805086  0.89362678     0.14600
C965        C  0.97037544  0.73674236  0.83957070    -0.15000
C966        C  0.93488377  0.74412670  0.85588441    -0.30100
H967        H  0.96876757  0.72433240  0.81676998     0.14100
H968        H  0.93832838  0.75657296  0.87863070     0.14600
C969        C  0.04061021  0.70376215  0.93333702    -0.15000
C970        C  0.07568167  0.69438123  0.94871511    -0.30100
H971        H  0.00966445  0.70321489  0.94418377     0.14100
H972        H  0.10643731  0.69475247  0.93756264     0.14600
C973        C  0.25354434  0.43372760  0.80967314    -0.15000
C974        C  0.27102396  0.39995461  0.79643922    -0.30100
H975        H  0.24603668  0.43321693  0.83359044     0.14100
H976        H  0.27866443  0.40029949  0.77254126     0.14600
C977        C  0.24343531  0.58510840  0.81809467    -0.15000
C978        C  0.25144661  0.62353177  0.80715072    -0.30100
H979        H  0.24054628  0.58031717  0.84223953     0.14100
H980        H  0.25433164  0.62804623  0.78296322     0.14600
C981        C  0.29549549  0.58033464  0.61219316    -0.15000
C982        C  0.29332745  0.61467659  0.63049870    -0.30100
H983        H  0.29384541  0.58401460  0.58793232     0.14100
H984        H  0.29415809  0.60998493  0.65470957     0.14600
C985        C  0.30412192  0.42203311  0.60328291    -0.15000
C986        C  0.31390713  0.38559167  0.61747753    -0.30100
H987        H  0.29249728  0.42147714  0.58032247     0.14100
H988        H  0.32481554  0.38746989  0.64061936     0.14600
C989        C  0.28079772  0.48893860  0.70114357    -0.15000
C990        C  0.26942892  0.52167377  0.71884184    -0.30100
H991        H  0.28234155  0.45722291  0.71045367     0.14100
H992        H  0.26786212  0.55337932  0.70951774     0.14600
loop_ 
_geom_bond_atom_site_label_1 
_geom_bond_atom_site_label_2 
_geom_bond_distance 
_geom_bond_site_symmetry_2 
_ccdc_geom_bond_type 
C1            N2   1.369       .  A
C1            N6   1.377       .  A
C1          C489   1.512       .  S
N2            C3   1.362       .  A
C3            N4   1.344       .  A
C3          C493   1.476       .  S
N4            C5   1.353       .  A
C5            N6   1.374       .  A
C5          C485   1.502       .  S
C7            N8   1.368       .  A
C7           N12   1.352       .  A
C7          C481   1.470       .  S
N8            C9   1.367       .  A
C9           N10   1.349       .  A
C9          C494   1.477       .  S
N10          C11   1.353       .  A
C11          N12   1.348       .  A
C11         C477   1.459       .  S
C13          N14   1.359       .  A
C13          N18   1.375       .  A
C13         C465   1.503       .  S
N14          C15   1.352       .  A
C15          N16   1.349       .  A
C15         C473   1.475       .  S
N16          C17   1.360       .  A
C17          N18   1.375       .  A
C17         C469   1.500   1_455  S
C19          N20   1.357       .  A
C19          N24   1.350   1_554  A
C19         C458   1.462       .  S
N20          C21   1.354       .  A
C21          N22   1.357   1_554  A
C21         C461   1.467       .  S
N22          C23   1.357       .  A
C23          N24   1.352       .  A
C23         C970   1.459       .  S
O25         Ni31   1.955       .  S
O25          C46   1.277       .  A
O26         Ni49   1.902       .  S
O26          C35   1.265       .  A
O27         Ni31   1.913       .  S
O27         Ni49   1.916       .  S
O27         Ni43   1.895       .  S
O27          H50   0.966       .  S
C28         C445   1.467       .  S
C28          O45   1.263       .  A
C28          O37   1.276       .  A
O29         Ni48   1.937       .  S
O29          C35   1.272       .  A
O30         Ni48   1.896       .  S
O30          C32   1.267       .  A
Ni31         O34   1.937       .  S
Ni31         O36   1.912       .  S
C32         C441   1.480       .  S
C32          O42   1.278       .  A
O33         Ni49   1.896       .  S
O33          C39   1.267       .  A
O34          C39   1.281       .  A
C35         C449   1.482       .  S
O36          C38   1.271       .  A
O37         Ni48   1.931       .  S
C38         C466   1.489       .  S
C38          O44   1.275       .  A
C39         C482   1.475       .  S
H40          O41   0.966       .  S
O41         Ni49   1.910       .  S
O41         Ni43   1.926       .  S
O41         Ni48   1.920       .  S
O42         Ni43   1.969       .  S
Ni43         O47   1.906       .  S
Ni43         O45   1.890       .  S
O44         Ni49   1.951       .  S
C46         C453   1.490       .  S
C46          O47   1.266       .  A
O51         Ni57   1.952       .  S
O51          C72   1.276       .  A
O52         Ni75   1.907       .  S
O52          C61   1.265       .  A
O53         Ni57   1.918       .  S
O53         Ni75   1.918       .  S
O53         Ni69   1.897       .  S
O53          H76   0.966       .  S
C54         C457   1.461       .  S
C54          O71   1.266       .  A
C54          O63   1.268       .  A
O55         Ni74   1.930       .  S
O55          C61   1.270       .  A
O56         Ni74   1.903       .  S
O56          C58   1.271       .  A
Ni57         O60   1.939       .  S
Ni57         O62   1.913       .  S
C58         C486   1.485       .  S
C58          O68   1.280       .  A
O59         Ni75   1.888       .  S
O59          C65   1.265       .  A
O60          C65   1.279       .  A
C61         C450   1.483       .  S
O62          C64   1.272       .  A
O63         Ni74   1.922       .  S
C64         C438   1.493       .  S
C64          O70   1.275       .  A
C65         C434   1.470       .  S
H66          O67   0.966       .  S
O67         Ni75   1.914       .  S
O67         Ni69   1.930       .  S
O67         Ni74   1.927       .  S
O68         Ni69   1.972       .  S
Ni69         O73   1.920       .  S
Ni69         O71   1.887       .  S
O70         Ni75   1.951       .  S
C72         C950   1.499   1_554  S
C72          O73   1.271       .  A
C77          N78   1.352       .  A
C77          N82   1.363       .  A
C77         C433   1.468       .  S
N78          C79   1.351       .  A
C79          N80   1.356       .  A
C79         C425   1.462       .  S
N80          C81   1.353       .  A
C81          N82   1.361       .  A
C81         C430   1.473       .  S
C83          N84   1.359       .  A
C83          N88   1.373       .  A
C83         C442   1.496       .  S
N84          C85   1.348       .  A
C85          N86   1.354       .  A
C85         C429   1.477       .  S
N86          C87   1.360       .  A
C87          N88   1.373       .  A
C87         C421   1.501       .  S
O89         Ni95   1.943       .  S
O89         C110   1.274       .  A
O90        Ni113   1.921       .  S
O90          C99   1.270       .  A
O91         Ni95   1.917       .  S
O91        Ni113   1.920       .  S
O91        Ni107   1.895       .  S
O91         H114   0.966       .  S
C92         C406   1.472       .  S
C92         O109   1.262       .  A
C92         O101   1.276       .  A
O93        Ni112   1.942       .  S
O93          C99   1.274       .  A
O94        Ni112   1.902       .  S
O94          C96   1.269       .  A
Ni95         O98   1.928       .  S
Ni95        O100   1.905       .  S
C96         C470   1.485       .  S
C96         O106   1.279       .  A
O97        Ni113   1.893       .  S
O97         C103   1.270       .  A
O98         C103   1.275       .  A
C99         C417   1.498       .  S
O100        C102   1.269       .  A
O101       Ni112   1.931       .  S
C102        C422   1.488       .  S
C102        O108   1.277       .  A
C103        C410   1.463       .  S
H104        O105   0.966       .  S
O105       Ni113   1.914       .  S
O105       Ni107   1.934       .  S
O105       Ni112   1.922       .  S
O106       Ni107   1.965       .  S
Ni107       O111   1.909       .  S
Ni107       O109   1.889       .  S
O108       Ni113   1.962       .  S
C110        C413   1.488       .  S
C110        O111   1.266       .  A
O115       Ni121   1.949       .  S
O115        C136   1.274       .  A
O116       Ni139   1.907       .  S
O116        C125   1.267       .  A
O117       Ni121   1.919       .  S
O117       Ni139   1.922       .  S
O117       Ni133   1.897       .  S
O117        H140   0.966       .  S
C118        C426   1.462       .  S
C118        O135   1.263       .  A
C118        O127   1.273       .  A
O119       Ni138   1.930       .  S
O119        C125   1.270       .  A
O120       Ni138   1.899       .  S
O120        C122   1.268       .  A
Ni121       O124   1.927       .  S
Ni121       O126   1.899       .  S
C122        C401   1.481       .  S
C122        O132   1.277       .  A
O123       Ni139   1.901       .  S
O123        C129   1.270       .  A
O124        C129   1.277       .  A
C125        C914   1.478   1_554  S
O126        C128   1.267       .  A
O127       Ni138   1.922       .  S
C128        C397   1.474       .  S
C128        O134   1.273       .  A
C129        C462   1.470       .  S
H130        O131   0.966       .  S
O131       Ni139   1.909       .  S
O131       Ni133   1.921       .  S
O131       Ni138   1.918       .  S
O132       Ni133   1.956       .  S
Ni133       O137   1.901       .  S
Ni133       O135   1.886       .  S
O134       Ni139   1.947       .  S
C136        C414   1.486       .  S
C136        O137   1.264       .  A
C141        N142   1.372       .  A
C141        N146   1.356       .  A
C141        C398   1.494       .  S
N142        C143   1.373       .  A
C143        N144   1.363       .  A
C143        C389   1.500       .  S
N144        C145   1.354       .  A
C145        N146   1.344       .  A
C145        C394   1.473       .  S
C147        N148   1.363       .  A
C147        N152   1.350       .  A
C147        C405   1.466       .  S
N148        C149   1.364       .  A
C149        N150   1.354       .  A
C149        C393   1.475       .  S
N150        C151   1.357       .  A
C151        N152   1.348       .  A
C151        C385   1.461       .  S
C153        N154   1.357       .  A
C153        N158   1.356       .  A
C153        C409   1.468       .  S
N154        C155   1.360   1_565  A
C155        N156   1.352       .  A
C155        C381   1.470       .  S
N156        C157   1.357       .  A
C157        N158   1.350   1_545  A
C157        C377   1.462       .  S
C159        N160   1.372   1_565  A
C159        N164   1.362       .  A
C159        C402   1.496       .  S
N160        C161   1.370       .  A
C161        N162   1.357       .  A
C161        C373   1.492       .  S
N162        C163   1.348       .  A
C163        N164   1.353   1_545  A
C163        C878   1.474   1_554  S
O165       Ni171   1.941       .  S
O165        C186   1.274       .  A
O166       Ni189   1.894       .  S
O166        C175   1.264       .  A
O167       Ni171   1.912       .  S
O167       Ni189   1.918       .  S
O167       Ni183   1.900       .  S
O167        H190   0.966       .  S
C168        C378   1.459       .  S
C168        O185   1.270       .  A
C168        O177   1.280       .  A
O169       Ni188   1.955       .  S
O169        C175   1.278       .  A
O170       Ni188   1.910       .  S
O170        C172   1.273       .  A
Ni171       O174   1.926       .  S
Ni171       O176   1.903       .  S
C172        C357   1.500       .  S
C172        O182   1.278       .  A
O173       Ni189   1.887       .  S
O173        C179   1.266       .  A
O174        C179   1.278       .  A
C175        C365   1.480       .  S
O176        C178   1.268       .  A
O177       Ni188   1.925       .  S
C178        C361   1.479       .  S
C178        O184   1.274       .  A
C179        C386   1.462       .  S
H180        O181   0.966       .  S
O181       Ni189   1.886       .  S
O181       Ni183   1.906       .  S
O181       Ni188   1.904       .  S
O182       Ni183   1.952       .  S
Ni183       O187   1.911       .  S
Ni183       O185   1.893       .  S
O184       Ni189   1.949       .  S
C186        C369   1.487       .  S
C186        O187   1.270       .  A
O191       Ni197   1.922       .  S
O191        C212   1.271       .  A
O192       Ni215   1.905       .  S
O192        C201   1.263       .  A
O193       Ni197   1.923       .  S
O193       Ni215   1.922       .  S
O193       Ni209   1.923       .  S
O193        H216   0.966       .  S
C194        C353   1.463       .  S
C194        O211   1.272       .  A
C194        O203   1.273       .  A
O195       Ni214   1.938       .  S
O195        C201   1.272       .  A
O196       Ni214   1.899       .  S
O196        C198   1.268       .  A
Ni197       O200   1.938       .  S
Ni197       O202   1.896       .  S
C198        C390   1.485       .  S
C198        O208   1.278       .  A
O199       Ni215   1.871       .  S
O199        C205   1.257       .  A
O200        C205   1.272       .  A
C201        C366   1.485       .  S
O202        C204   1.268       .  A
O203       Ni214   1.919       .  S
C204        C374   1.479       .  S
C204        O210   1.279       .  A
C205        C349   1.458       .  S
H206        O207   0.966       .  S
O207       Ni215   1.890       .  S
O207       Ni209   1.920       .  S
O207       Ni214   1.915       .  S
O208       Ni209   1.963       .  S
Ni209       O213   1.921       .  S
Ni209       O211   1.900       .  S
O210       Ni215   1.968       .  S
C212        C866   1.490   1_554  S
C212        O213   1.271       .  A
C217        N218   1.354       .  A
C217        N222   1.364       .  A
C217        C341   1.463       .  S
N218        C219   1.350       .  A
C219        N220   1.356       .  A
C219        C350   1.466       .  S
N220        C221   1.351       .  A
C221        N222   1.357       .  A
C221        C346   1.471       .  S
C223        N224   1.354       .  A
C223        N228   1.371       .  A
C223        C358   1.484       .  S
N224        C225   1.352       .  A
C225        N226   1.351       .  A
C225        C345   1.479       .  S
N226        C227   1.362       .  A
C227        N228   1.374       .  A
C227        C338   1.491       .  S
C229        N230   1.351       .  A
C229        N234   1.360       .  A
C229        C446   1.462       .  S
N230        C231   1.349   1_565  A
C231        N232   1.360       .  A
C231        C329   1.466       .  S
N232        C233   1.354       .  A
C233        N234   1.360   1_545  A
C233        C333   1.477       .  S
C235        N236   1.364       .  A
C235        N240   1.378   1_545  A
C235        C325   1.507       .  S
N236        C237   1.354   1_545  A
C237        N238   1.345       .  A
C237        C830   1.471   1_554  S
N238        C239   1.351       .  A
C239        N240   1.375       .  A
C239        C437   1.484       .  S
C241        N242   1.375       .  A
C241        N246   1.357       .  A
C241        C362   1.488   1_455  S
N242        C243   1.374       .  A
C243        N244   1.353       .  A
C243        C317   1.481       .  S
N244        C245   1.348       .  A
C245        N246   1.345       .  A
C245        C321   1.465       .  S
C247        N248   1.359       .  A
C247        N252   1.351       .  A
C247        C314   1.465       .  S
N248        C249   1.352   1_554  A
C249        N250   1.359       .  A
C249        C818   1.469       .  S
N250        C251   1.354   1_556  A
C251        N252   1.357       .  A
C251        C354   1.467   1_455  S
O253       Ni259   1.959       .  S
O253        C274   1.277       .  A
O254       Ni277   1.910       .  S
O254        C263   1.269       .  A
O255       Ni259   1.926       .  S
O255       Ni277   1.927       .  S
O255       Ni271   1.902       .  S
O255        H278   0.966       .  S
C256        C478   1.453       .  S
C256        O273   1.267       .  A
C256        O265   1.278       .  A
O257       Ni276   1.948       .  S
O257        C263   1.276       .  A
O258       Ni276   1.914       .  S
O258        C260   1.272       .  A
Ni259       O262   1.937       .  S
Ni259       O264   1.903       .  S
C260        C318   1.493       .  S
C260        O270   1.271       .  A
O261       Ni277   1.872       .  S
O261        C267   1.260       .  A
O262        C267   1.278       .  A
C263        C309   1.490       .  S
O264        C266   1.269       .  A
O265       Ni276   1.932       .  S
C266        C337   1.479       .  S
C266        O272   1.279       .  A
C267        C330   1.460       .  S
H268        O269   0.967       .  S
O269       Ni277   1.885       .  S
O269       Ni271   1.910       .  S
O269       Ni276   1.915       .  S
O270       Ni271   1.943       .  S
Ni271       O275   1.899       .  S
Ni271       O273   1.876       .  S
O272       Ni277   1.954       .  S
C274        C306   1.490       .  S
C274        O275   1.263       .  A
O279       Ni285   1.952       .  S
O279        C300   1.277       .  A
O280       Ni303   1.921       .  S
O280        C289   1.273       .  A
O281       Ni285   1.909       .  S
O281       Ni303   1.918       .  S
O281       Ni297   1.896       .  S
O281        H304   0.966       .  S
C282        C342   1.462       .  S
C282        O299   1.265       .  A
C282        O291   1.280       .  A
O283       Ni302   1.951       .  S
O283        C289   1.276       .  A
O284       Ni302   1.904       .  S
O284        C286   1.269       .  A
Ni285       O288   1.933       .  S
Ni285       O290   1.910       .  S
C286        C326   1.494       .  S
C286        O296   1.280       .  A
O287       Ni303   1.884       .  S
O287        C293   1.267       .  A
O288        C293   1.280       .  A
C289        C806   1.501   1_554  S
O290        C292   1.270       .  A
O291       Ni302   1.934       .  S
C292        C490   1.500       .  S
C292        O298   1.285       .  A
C293        C313   1.460       .  S
H294        O295   0.966       .  S
O295       Ni303   1.902       .  S
O295       Ni297   1.922       .  S
O295       Ni302   1.914       .  S
O296       Ni297   1.971       .  S
Ni297       O301   1.909       .  S
Ni297       O299   1.883       .  S
O298       Ni303   1.976       .  S
C300        C305   1.493       .  S
C300        O301   1.267       .  A
C305        C306   1.348       .  D
C305        H307   1.086       .  S
C306        H308   1.087       .  S
C309        C310   1.352       .  D
C309        H311   1.087       .  S
C310        C785   1.490       .  S
C310        H312   1.086       .  S
C313        C314   1.334       .  D
C313        H315   1.088       .  S
C314        H316   1.087       .  S
C317        C318   1.341       .  D
C317        H319   1.088       .  S
C318        H320   1.086       .  S
C321        C322   1.341       .  D
C321        H323   1.087       .  S
C322        C745   1.465       .  S
C322        H324   1.087       .  S
C325        C326   1.359       .  D
C325        H327   1.085       .  S
C326        H328   1.087       .  S
C329        C330   1.333       .  D
C329        H331   1.087       .  S
C330        H332   1.088       .  S
C333        C334   1.340   1_545  D
C333        H335   1.087       .  S
C334        C733   1.474       .  S
C334        H336   1.087       .  S
C337        C338   1.352       .  D
C337        H339   1.087       .  S
C338        H340   1.086       .  S
C341        C342   1.334       .  D
C341        H343   1.087       .  S
C342        H344   1.087       .  S
C345        C346   1.344       .  D
C345        H347   1.086       .  S
C346        H348   1.087       .  S
C349        C350   1.338       .  D
C349        H351   1.087       .  S
C350        H352   1.087       .  S
C353        C354   1.340       .  D
C353        H355   1.087   1_655  S
C354        H356   1.087       .  S
C357        C358   1.352       .  D
C357        H359   1.086       .  S
C358        H360   1.087       .  S
C361        C362   1.353       .  D
C361        H363   1.088       .  S
C362        H364   1.085       .  S
C365        C366   1.345       .  D
C365        H367   1.087       .  S
C366        H368   1.086       .  S
C369        C370   1.354       .  D
C369        H371   1.087       .  S
C370        C708   1.489       .  S
C370        H372   1.086       .  S
C373        C374   1.353       .  D
C373        H375   1.086       .  S
C374        H376   1.088       .  S
C377        C378   1.336       .  D
C377        H379   1.087       .  S
C378        H380   1.088       .  S
C381        C382   1.338   1_545  D
C381        H383   1.087       .  S
C382        C659   1.466       .  S
C382        H880   1.087       .  S
H384        C878   1.087       .  S
C385        C386   1.335       .  D
C385        H387   1.087       .  S
C386        H388   1.087       .  S
C389        C390   1.354       .  D
C389        H391   1.086       .  S
C390        H392   1.087       .  S
C393        C394   1.339       .  D
C393        H395   1.087       .  S
C394        H396   1.087       .  S
C397        C398   1.355       .  D
C397        H399   1.086       .  S
C398        H400   1.086       .  S
C401        C402   1.353       .  D
C401        H403   1.087       .  S
C402        H404   1.086       .  S
C405        C406   1.335       .  D
C405        H407   1.087       .  S
C406        H408   1.087       .  S
C409        C410   1.343       .  D
C409        H411   1.087       .  S
C410        H412   1.087       .  S
C413        C414   1.349       .  D
C413        H415   1.087       .  S
C414        H416   1.087       .  S
C417        C418   1.354       .  D
C417        H419   1.086       .  S
C418        C621   1.494       .  S
C418        H420   1.087       .  S
C421        C422   1.357       .  D
C421        H423   1.086       .  S
C422        H424   1.087       .  S
C425        C426   1.338       .  D
C425        H427   1.087       .  S
C426        H428   1.087       .  S
C429        C430   1.341       .  D
C429        H431   1.087       .  S
C430        H432   1.087       .  S
C433        C434   1.336       .  D
C433        H435   1.087       .  S
C434        H436   1.087       .  S
C437        C438   1.344       .  D
C437        H439   1.088       .  S
C438        H440   1.086       .  S
C441        C442   1.354       .  D
C441        H443   1.087       .  S
C442        H444   1.086       .  S
C445        C446   1.338       .  D
C445        H447   1.087       .  S
C446        H448   1.087       .  S
C449        C450   1.349       .  D
C449        H451   1.087       .  S
C450        H452   1.087       .  S
C453        C454   1.350       .  D
C453        H455   1.087       .  S
C454        C568   1.491       .  S
C454        H456   1.086       .  S
C457        C458   1.337       .  D
C457        H459   1.087       .  S
C458        H460   1.087       .  S
C461        C462   1.342   1_455  D
C461        H463   1.087       .  S
C462        H464   1.087       .  S
C465        C466   1.359       .  D
C465        H467   1.086       .  S
C466        H468   1.086       .  S
C469        C470   1.356       .  D
C469        H471   1.086       .  S
C470        H472   1.087       .  S
C473        C474   1.343       .  D
C473        H475   1.087       .  S
C474        C519   1.473       .  S
C474        H476   1.087       .  S
C477        C478   1.336       .  D
C477        H479   1.087       .  S
C478        H480   1.087       .  S
C481        C482   1.335       .  D
C481        H483   1.087       .  S
C482        H484   1.087       .  S
C485        C486   1.359       .  D
C485        H487   1.085       .  S
C486        H488   1.087       .  S
C489        C490   1.359       .  D
C489        H491   1.086       .  S
C490        H492   1.086       .  S
C493        C494   1.335       .  D
C493        H495   1.087       .  S
C494        H496   1.087       .  S
C497        N498   1.360       .  A
C497        N502   1.371       .  A
C497        C985   1.494       .  S
N498        C499   1.350       .  A
C499        N500   1.353       .  A
C499        C989   1.477       .  S
N500        C501   1.360       .  A
C501        N502   1.371       .  A
C501        C981   1.497       .  S
C503        N504   1.361       .  A
C503        N508   1.348       .  A
C503        C977   1.466       .  S
N504        C505   1.356       .  A
C505        N506   1.358       .  A
C505        C990   1.477       .  S
N506        C507   1.360       .  A
C507        N508   1.350       .  A
C507        C973   1.460       .  S
C509        N510   1.353       .  A
C509        N514   1.373       .  A
C509        C961   1.491       .  S
N510        C511   1.345       .  A
C511        N512   1.342       .  A
C511        C969   1.464       .  S
N512        C513   1.359       .  A
C513        N514   1.374       .  A
C513        C965   1.485   1_455  S
C515        N516   1.350       .  A
C515        N520   1.359       .  A
C515        C954   1.467       .  S
N516        C517   1.353       .  A
C517        N518   1.360       .  A
C517        C957   1.460   1_455  S
N518        C519   1.357       .  A
C519        N520   1.354       .  A
O521       Ni527   1.954       .  S
O521        C542   1.277       .  A
O522       Ni545   1.897       .  S
O522        C531   1.260       .  A
O523       Ni527   1.919       .  S
O523       Ni545   1.918       .  S
O523       Ni539   1.899       .  S
O523        H546   0.966       .  S
C524        C941   1.466       .  S
C524        O541   1.266       .  A
C524        O533   1.276       .  A
O525       Ni544   1.946       .  S
O525        C531   1.274       .  A
O526       Ni544   1.896       .  S
O526        C528   1.267       .  A
Ni527       O530   1.939       .  S
Ni527       O532   1.906       .  S
C528        C937   1.478       .  S
C528        O538   1.279       .  A
O529       Ni545   1.874       .  S
O529        C535   1.261       .  A
O530        C535   1.279       .  A
C531        C945   1.486       .  S
O532        C534   1.270       .  A
O533       Ni544   1.933       .  S
C534        C962   1.473       .  S
C534        O540   1.270       .  A
C535        C978   1.461       .  S
H536        O537   0.966       .  S
O537       Ni545   1.901       .  S
O537       Ni539   1.928       .  S
O537       Ni544   1.920       .  S
O538       Ni539   1.967       .  S
Ni539       O543   1.919       .  S
Ni539       O541   1.888       .  S
O540       Ni545   1.935       .  S
C542        C949   1.499       .  S
C542        O543   1.271       .  A
O547       Ni553   1.946       .  S
O547        C568   1.274       .  A
O548       Ni571   1.895       .  S
O548        C557   1.261       .  A
O549       Ni553   1.921       .  S
O549       Ni571   1.923       .  S
O549       Ni565   1.895       .  S
O549        H572   0.965       .  S
C550        C953   1.460       .  S
C550        O567   1.260       .  A
C550        O559   1.278       .  A
O551       Ni570   1.952       .  S
O551        C557   1.275       .  A
O552       Ni570   1.902       .  S
O552        C554   1.269       .  A
Ni553       O556   1.932       .  S
Ni553       O558   1.898       .  S
C554        C982   1.483       .  S
C554        O564   1.278       .  A
O555       Ni571   1.880       .  S
O555        C561   1.261       .  A
O556        C561   1.277       .  A
C557        C946   1.484       .  S
O558        C560   1.267       .  A
O559       Ni570   1.942       .  S
C560        C934   1.478       .  S
C560        O566   1.274       .  A
C561        C930   1.461       .  S
H562        O563   0.967       .  S
O563       Ni571   1.900       .  S
O563       Ni565   1.922       .  S
O563       Ni570   1.925       .  S
O564       Ni565   1.959       .  S
Ni565       O569   1.908       .  S
Ni565       O567   1.870       .  S
O566       Ni571   1.957       .  S
C568        O569   1.265       .  A
C573        N574   1.348       .  A
C573        N578   1.359       .  A
C573        C929   1.457       .  S
N574        C575   1.347       .  A
C575        N576   1.362       .  A
C575        C921   1.465       .  S
N576        C577   1.357       .  A
C577        N578   1.358       .  A
C577        C926   1.478       .  S
C579        N580   1.360       .  A
C579        N584   1.370       .  A
C579        C938   1.491       .  S
N580        C581   1.350       .  A
C581        N582   1.352       .  A
C581        C925   1.476       .  S
N582        C583   1.361       .  A
C583        N584   1.371       .  A
C583        C917   1.493       .  S
O585       Ni591   1.958       .  S
O585        C606   1.278       .  A
O586       Ni609   1.913       .  S
O586        C595   1.268       .  A
O587       Ni591   1.921       .  S
O587       Ni609   1.928       .  S
O587       Ni603   1.907       .  S
O587        H610   0.966       .  S
C588        C902   1.453       .  S
C588        O605   1.267       .  A
C588        O597   1.269       .  A
O589       Ni608   1.919       .  S
O589        C595   1.268       .  A
O590       Ni608   1.897       .  S
O590        C592   1.266       .  A
Ni591       O594   1.945       .  S
Ni591       O596   1.900       .  S
C592        C966   1.471       .  S
C592        O602   1.272       .  A
O593       Ni609   1.866       .  S
O593        C599   1.258       .  A
O594        C599   1.278       .  A
C595        C913   1.482       .  S
O596        C598   1.270       .  A
O597       Ni608   1.923       .  S
C598        C918   1.478       .  S
C598        O604   1.279       .  A
C599        C906   1.461       .  S
H600        O601   0.966       .  S
O601       Ni609   1.894       .  S
O601       Ni603   1.917       .  S
O601       Ni608   1.921       .  S
O602       Ni603   1.954       .  S
Ni603       O607   1.904       .  S
Ni603       O605   1.881       .  S
O604       Ni609   1.956       .  S
C606        C909   1.495       .  S
C606        O607   1.264       .  A
O611       Ni617   1.965       .  S
O611        C632   1.277       .  A
O612       Ni635   1.909       .  S
O612        C621   1.267       .  A
O613       Ni617   1.918       .  S
O613       Ni635   1.921       .  S
O613       Ni629   1.883       .  S
O613        H636   0.967       .  S
C614        C922   1.460       .  S
C614        O631   1.256       .  A
C614        O623   1.277       .  A
O615       Ni634   1.957       .  S
O615        C621   1.276       .  A
O616       Ni634   1.894       .  S
O616        C618   1.269       .  A
Ni617       O620   1.936       .  S
Ni617       O622   1.903       .  S
C618        C897   1.472       .  S
C618        O628   1.274       .  A
O619       Ni635   1.886       .  S
O619        C625   1.267       .  A
O620        C625   1.280       .  A
O622        C624   1.269       .  A
O623       Ni634   1.943       .  S
C624        C893   1.472       .  S
C624        O630   1.273       .  A
C625        C958   1.464       .  S
H626        O627   0.966       .  S
O627       Ni635   1.909       .  S
O627       Ni629   1.927       .  S
O627       Ni634   1.928       .  S
O628       Ni629   1.947       .  S
Ni629       O633   1.898       .  S
Ni629       O631   1.863       .  S
O630       Ni635   1.949       .  S
C632        C910   1.494       .  S
C632        O633   1.261       .  A
C637        N638   1.374       .  A
C637        N642   1.356       .  A
C637        C894   1.492       .  S
N638        C639   1.374       .  A
C639        N640   1.356       .  A
C639        C885   1.495       .  S
N640        C641   1.346       .  A
C641        N642   1.344       .  A
C641        C890   1.462       .  S
C643        N644   1.349       .  A
C643        N648   1.354       .  A
C643        C901   1.456       .  S
N644        C645   1.355       .  A
C645        N646   1.355       .  A
C645        C889   1.466       .  S
N646        C647   1.360       .  A
C647        N648   1.349       .  A
C647        C881   1.463       .  S
C649        N650   1.360       .  A
C649        N654   1.349       .  A
C649        C905   1.469       .  S
N650        C651   1.355       .  A
C651        N652   1.359   1_565  A
C651        C877   1.476       .  S
N652        C653   1.359       .  A
C653        N654   1.352   1_545  A
C653        C873   1.460       .  S
C655        N656   1.370       .  A
C655        N660   1.353       .  A
C655        C898   1.491       .  S
N656        C657   1.373   1_565  A
C657        N658   1.362       .  A
C657        C869   1.494       .  S
N658        C659   1.353   1_545  A
C659        N660   1.342       .  A
O661       Ni667   1.950       .  S
O661        C682   1.276       .  A
O662       Ni685   1.896       .  S
O662        C671   1.264       .  A
O663       Ni667   1.910       .  S
O663       Ni685   1.913       .  S
O663       Ni679   1.898       .  S
O663        H686   0.966       .  S
C664        C874   1.468       .  S
C664        O681   1.271       .  A
C664        O673   1.278       .  A
O665       Ni684   1.950       .  S
O665        C671   1.275       .  A
O666       Ni684   1.909       .  S
O666        C668   1.272       .  A
Ni667       O670   1.929       .  S
Ni667       O672   1.906       .  S
C668        C853   1.494       .  S
C668        O678   1.275       .  A
O669       Ni685   1.884       .  S
O669        C675   1.265       .  A
O670        C675   1.279       .  A
C671        C861   1.479       .  S
O672        C674   1.270       .  A
O673       Ni684   1.918       .  S
C674        C857   1.477       .  S
C674        O680   1.273       .  A
C675        C882   1.460       .  S
H676        O677   0.966       .  S
O677       Ni685   1.891       .  S
O677       Ni679   1.915       .  S
O677       Ni684   1.911       .  S
O678       Ni679   1.947       .  S
Ni679       O683   1.905       .  S
Ni679       O681   1.904       .  S
O680       Ni685   1.942       .  S
C682        C865   1.483       .  S
C682        O683   1.268       .  A
O687       Ni693   1.927       .  S
O687        C708   1.271       .  A
O688       Ni711   1.914       .  S
O688        C697   1.266       .  A
O689       Ni693   1.923       .  S
O689       Ni711   1.929       .  S
O689       Ni705   1.929       .  S
O689        H712   0.966       .  S
C690        C849   1.460       .  S
C690        O707   1.277       .  A
C690        O699   1.270       .  A
O691       Ni710   1.928       .  S
O691        C697   1.270       .  A
O692       Ni710   1.902       .  S
O692        C694   1.268       .  A
Ni693       O696   1.931       .  S
Ni693       O698   1.899       .  S
C694        C886   1.475       .  S
C694        O704   1.272       .  A
O695       Ni711   1.871       .  S
O695        C701   1.258       .  A
O696        C701   1.271       .  A
C697        C862   1.485       .  S
O698        C700   1.270       .  A
O699       Ni710   1.905       .  S
C700        C870   1.477       .  S
C700        O706   1.280       .  A
C701        C845   1.457       .  S
H702        O703   0.966       .  S
O703       Ni711   1.889       .  S
O703       Ni705   1.919       .  S
O703       Ni710   1.913       .  S
O704       Ni705   1.943       .  S
Ni705       O709   1.921       .  S
Ni705       O707   1.912       .  S
O706       Ni711   1.961       .  S
C708        O709   1.272       .  A
C713        N714   1.353       .  A
C713        N718   1.360       .  A
C713        C837   1.460       .  S
N714        C715   1.350       .  A
C715        N716   1.357       .  A
C715        C846   1.466       .  S
N716        C717   1.352       .  A
C717        N718   1.357       .  A
C717        C842   1.468       .  S
C719        N720   1.353       .  A
C719        N724   1.371       .  A
C719        C854   1.480       .  S
N720        C721   1.351       .  A
C721        N722   1.349       .  A
C721        C841   1.474       .  S
N722        C723   1.361       .  A
C723        N724   1.374       .  A
C723        C834   1.492       .  S
C725        N726   1.353   1_565  A
C725        N730   1.358       .  A
C725        C942   1.467       .  S
N726        C727   1.353       .  A
C727        N728   1.360       .  A
C727        C825   1.466       .  S
N728        C729   1.352       .  A
C729        N730   1.357   1_545  A
C729        C829   1.476       .  S
C731        N732   1.364       .  A
C731        N736   1.374   1_545  A
C731        C821   1.502       .  S
N732        C733   1.354   1_545  A
C733        N734   1.345       .  A
N734        C735   1.356       .  A
C735        N736   1.372       .  A
C735        C933   1.494       .  S
C737        N738   1.375       .  A
C737        N742   1.352       .  A
C737        C858   1.499   1_455  S
N738        C739   1.378       .  A
C739        N740   1.361       .  A
C739        C813   1.501       .  S
N740        C741   1.349       .  A
C741        N742   1.340       .  A
C741        C817   1.463       .  S
C743        N744   1.358       .  A
C743        N748   1.353       .  A
C743        C810   1.472       .  S
N744        C745   1.353       .  A
C745        N746   1.355       .  A
N746        C747   1.351       .  A
C747        N748   1.360       .  A
C747        C850   1.466   1_455  S
O749       Ni755   1.946       .  S
O749        C770   1.274       .  A
O750       Ni773   1.915       .  S
O750        C759   1.268       .  A
O751       Ni755   1.928       .  S
O751       Ni773   1.929       .  S
O751       Ni767   1.909       .  S
O751        H774   0.967       .  S
C752        C974   1.463       .  S
C752        O769   1.264       .  A
C752        O761   1.278       .  A
O753       Ni772   1.957       .  S
O753        C759   1.275       .  A
O754       Ni772   1.902       .  S
O754        C756   1.269       .  A
Ni755       O758   1.939       .  S
Ni755       O760   1.899       .  S
C756        C814   1.482       .  S
C756        O766   1.277       .  A
O757       Ni773   1.872       .  S
O757        C763   1.260       .  A
O758        C763   1.275       .  A
C759        C805   1.499       .  S
O760        C762   1.269       .  A
O761       Ni772   1.931       .  S
C762        C833   1.478       .  S
C762        O768   1.279       .  A
C763        C826   1.460       .  S
H764        O765   0.966       .  S
O765       Ni773   1.891       .  S
O765       Ni767   1.925       .  S
O765       Ni772   1.922       .  S
O766       Ni767   1.959       .  S
Ni767       O771   1.910       .  S
Ni767       O769   1.884       .  S
O768       Ni773   1.965       .  S
C770        C802   1.492       .  S
C770        O771   1.267       .  A
O775       Ni781   1.946       .  S
O775        C796   1.275       .  A
O776       Ni799   1.913       .  S
O776        C785   1.268       .  A
O777       Ni781   1.921       .  S
O777       Ni799   1.924       .  S
O777       Ni793   1.910       .  S
O777        H800   0.966       .  S
C778        C838   1.463       .  S
C778        O795   1.267       .  A
C778        O787   1.277       .  A
O779       Ni798   1.943       .  S
O779        C785   1.273       .  A
O780       Ni798   1.900       .  S
O780        C782   1.269       .  A
Ni781       O784   1.942       .  S
Ni781       O786   1.898       .  S
C782        C822   1.487       .  S
C782        O792   1.279       .  A
O783       Ni799   1.880       .  S
O783        C789   1.264       .  A
O784        C789   1.277       .  A
O786        C788   1.267       .  A
O787       Ni798   1.919       .  S
C788        C986   1.478       .  S
C788        O794   1.277       .  A
C789        C809   1.465       .  S
H790        O791   0.966       .  S
O791       Ni799   1.896       .  S
O791       Ni793   1.919       .  S
O791       Ni798   1.911       .  S
O792       Ni793   1.961       .  S
Ni793       O797   1.912       .  S
Ni793       O795   1.896       .  S
O794       Ni799   1.961       .  S
C796        C801   1.493       .  S
C796        O797   1.269       .  A
C801        C802   1.353       .  D
C801        H803   1.086       .  S
C802        H804   1.087       .  S
C805        C806   1.357       .  D
C805        H807   1.087       .  S
C806        H808   1.086       .  S
C809        C810   1.340       .  D
C809        H811   1.087       .  S
C810        H812   1.086       .  S
C813        C814   1.358       .  D
C813        H815   1.086       .  S
C814        H816   1.086       .  S
C817        C818   1.338       .  D
C817        H819   1.087       .  S
C818        H820   1.087       .  S
C821        C822   1.355       .  D
C821        H823   1.086       .  S
C822        H824   1.087       .  S
C825        C826   1.337       .  D
C825        H827   1.087       .  S
C826        H828   1.087       .  S
C829        C830   1.341   1_545  D
C829        H831   1.087       .  S
C830        H832   1.087       .  S
C833        C834   1.353       .  D
C833        H835   1.087       .  S
C834        H836   1.086       .  S
C837        C838   1.337       .  D
C837        H839   1.087       .  S
C838        H840   1.087       .  S
C841        C842   1.342       .  D
C841        H843   1.086       .  S
C842        H844   1.087       .  S
C845        C846   1.336       .  D
C845        H847   1.087       .  S
C846        H848   1.087       .  S
C849        C850   1.334       .  D
C849        H851   1.087   1_655  S
C850        H852   1.087       .  S
C853        C854   1.347       .  D
C853        H855   1.086       .  S
C854        H856   1.087       .  S
C857        C858   1.361       .  D
C857        H859   1.086       .  S
C858        H860   1.085       .  S
C861        C862   1.348       .  D
C861        H863   1.087       .  S
C862        H864   1.086       .  S
C865        C866   1.352       .  D
C865        H867   1.087       .  S
C866        H868   1.086       .  S
C869        C870   1.353       .  D
C869        H871   1.086       .  S
C870        H872   1.087       .  S
C873        C874   1.340       .  D
C873        H875   1.087       .  S
C874        H876   1.087       .  S
C877        C878   1.342   1_565  D
C877        H879   1.087       .  S
C881        C882   1.333       .  D
C881        H883   1.087       .  S
C882        H884   1.088       .  S
C885        C886   1.357       .  D
C885        H887   1.086       .  S
C886        H888   1.086       .  S
C889        C890   1.342       .  D
C889        H891   1.087       .  S
C890        H892   1.087       .  S
C893        C894   1.355       .  D
C893        H895   1.086       .  S
C894        H896   1.086       .  S
C897        C898   1.355       .  D
C897        H899   1.087       .  S
C898        H900   1.085       .  S
C901        C902   1.336       .  D
C901        H903   1.087       .  S
C902        H904   1.087       .  S
C905        C906   1.333       .  D
C905        H907   1.087       .  S
C906        H908   1.088       .  S
C909        C910   1.348       .  D
C909        H911   1.087       .  S
C910        H912   1.087       .  S
C913        C914   1.352       .  D
C913        H915   1.086       .  S
C914        H916   1.087       .  S
C917        C918   1.352       .  D
C917        H919   1.086       .  S
C918        H920   1.087       .  S
C921        C922   1.330       .  D
C921        H923   1.087       .  S
C922        H924   1.088       .  S
C925        C926   1.345       .  D
C925        H927   1.087       .  S
C926        H928   1.087       .  S
C929        C930   1.334       .  D
C929        H931   1.087       .  S
C930        H932   1.087       .  S
C933        C934   1.355       .  D
C933        H935   1.086       .  S
C934        H936   1.087       .  S
C937        C938   1.351       .  D
C937        H939   1.088       .  S
C938        H940   1.086       .  S
C941        C942   1.341       .  D
C941        H943   1.087       .  S
C942        H944   1.087       .  S
C945        C946   1.345       .  D
C945        H947   1.087       .  S
C946        H948   1.087       .  S
C949        C950   1.356       .  D
C949        H951   1.086       .  S
C950        H952   1.086       .  S
C953        C954   1.335       .  D
C953        H955   1.087       .  S
C954        H956   1.087       .  S
C957        C958   1.337       .  D
C957        H959   1.087       .  S
C958        H960   1.087       .  S
C961        C962   1.357       .  D
C961        H963   1.086       .  S
C962        H964   1.087       .  S
C965        C966   1.351       .  D
C965        H967   1.086       .  S
C966        H968   1.088       .  S
C969        C970   1.339       .  D
C969        H971   1.087       .  S
C970        H972   1.087       .  S
C973        C974   1.335       .  D
C973        H975   1.087       .  S
C974        H976   1.087       .  S
C977        C978   1.332       .  D
C977        H979   1.087       .  S
C978        H980   1.088       .  S
C981        C982   1.354       .  D
C981        H983   1.086       .  S
C982        H984   1.087       .  S
C985        C986   1.352       .  D
C985        H987   1.086       .  S
C986        H988   1.087       .  S
C989        C990   1.344       .  D
C989        H991   1.087       .  S
C990        H992   1.087       .  S
