geometry optimzed in LAMMPS
_audit_creation_date              2020-12-01 
_audit_creation_method            'lammps2cif' 
_symmetry_space_group_name_H-M    'P1' 
_symmetry_Int_Tables_number       1 
_symmetry_cell_setting            triclinic 
loop_ 
_symmetry_equiv_pos_as_xyz 
  x,y,z 
_cell_length_a                    53.19504988 
_cell_length_b                    53.26298920843415 
_cell_length_c                    28.82754666230423 
_cell_angle_alpha                 89.92220286136624 
_cell_angle_beta                  89.94242435912992 
_cell_angle_gamma                 119.97978337190187 
loop_ 
_atom_site_label 
_atom_site_type_symbol 
_atom_site_fract_x 
_atom_site_fract_y 
_atom_site_fract_z 
_atom_site_charge 
O1          O  0.48058927  0.24049290  0.06289874    -0.71200
O2          O  0.48273331  0.24106676  0.93107997    -0.71400
O3          O  0.48133964  0.20494645  0.99694469    -0.71300
O4          O  0.48187421  0.27647029  0.99594494    -0.71300
O5          O  0.02900356  0.29989246  0.99980740    -0.71300
O6          O  0.02850870  0.22819954  0.99899899    -0.71300
O7          O  0.02989323  0.26498509  0.93290855    -0.71200
O8          O  0.02774772  0.26335632  0.06451650    -0.71400
V9          V  0.48255426  0.24119259  0.99687197     1.35200
V10         V  0.02787705  0.26362559  0.99887115     1.35200
C11         C  0.00387351  0.25193210  0.08606235     0.78000
C12         C  0.00665310  0.25331977  0.90962538     0.78100
C13         C  0.50479867  0.20441621  0.99816066     0.77900
C14         C  0.50546634  0.30026706  0.99788711     0.77900
O15         O  0.02482530  0.26299395  0.43102767    -0.71200
O16         O  0.02649240  0.26718462  0.56271541    -0.71400
O17         O  0.02731533  0.23024541  0.50030261    -0.71300
O18         O  0.02391692  0.29979369  0.49312508    -0.71300
O19         O  0.47719788  0.27484713  0.50342537    -0.71300
O20         O  0.48036899  0.20534071  0.49334705    -0.71300
O21         O  0.47979952  0.23810030  0.56413522    -0.71200
O22         O  0.47774298  0.24203384  0.43277775    -0.71400
V23         V  0.02481413  0.26461218  0.49684615     1.35200
V24         V  0.47962158  0.24052349  0.49844460     1.35200
C25         C  0.00099458  0.25252252  0.40953219     0.78000
C26         C  0.00340174  0.25269086  0.58583248     0.78100
C27         C  0.00436677  0.20596378  0.49635925     0.77900
C28         C  0.99999507  0.29913363  0.49826953     0.77900
C29         C  0.02549966  0.02628389  0.00102106     0.02800
C30         C  0.02624223  0.00004619  0.00251707     0.02800
C31         C  0.00009632  0.47304082  0.00242206     0.02800
C32         C  0.47298798  0.47215071  0.00184422     0.02800
C33         C  0.47217714  0.99842409  0.00000511     0.02800
C34         C  0.99845004  0.02552775  0.00017348     0.02800
C35         C  0.47391771  0.47520252  0.49748016     0.02800
C36         C  0.00049699  0.47508532  0.49631012     0.02800
C37         C  0.02723860  0.00169123  0.49667509     0.02800
C38         C  0.02736389  0.02844483  0.49721829     0.02800
C39         C  0.00075736  0.02856324  0.49598168     0.02800
C40         C  0.47399194  0.00192307  0.49689236     0.02800
O41         O  0.23538895  0.47095512  0.93337877    -0.71200
O42         O  0.23511440  0.47127341  0.06509198    -0.71400
O43         O  0.19929019  0.47066741  0.99834061    -0.71300
O44         O  0.27125349  0.47161089  0.99896845    -0.71300
O45         O  0.29427896  0.01876280  0.99861863    -0.71300
O46         O  0.22248971  0.01779605  0.00005988    -0.71300
O47         O  0.25890931  0.01839918  0.06466833    -0.71200
O48         O  0.25786992  0.01806727  0.93290742    -0.71400
V49         V  0.23570550  0.47203355  0.99906544     1.35200
V50         V  0.25792524  0.01733066  0.99893671     1.35200
C51         C  0.24656414  0.99442949  0.91079314     0.78000
C52         C  0.24715369  0.99491019  0.08725633     0.78100
C53         C  0.19876465  0.99411576  0.99916944     0.77900
C54         C  0.29496649  0.99540330  0.99888063     0.77900
O55         O  0.26044264  0.01731436  0.43281038    -0.71200
O56         O  0.25678823  0.01826158  0.56431694    -0.71400
O57         O  0.29421414  0.01777941  0.50284440    -0.71300
O58         O  0.22300715  0.01776321  0.49451220    -0.71300
O59         O  0.19952486  0.47104256  0.50432539    -0.71300
O60         O  0.27077111  0.47090975  0.49513430    -0.71300
O61         O  0.23759165  0.47142360  0.56544150    -0.71200
O62         O  0.23266791  0.47046245  0.43392578    -0.71400
V63         V  0.25819015  0.01694125  0.49862700     1.35200
V64         V  0.23555182  0.47177850  0.49966474     1.35200
C65         C  0.24645485  0.99372304  0.41097713     0.78000
C66         C  0.24730332  0.99501032  0.58725448     0.78100
C67         C  0.29460052  0.99435524  0.49902469     0.77900
C68         C  0.19919042  0.99445597  0.49962014     0.77900
O69         O  0.26052102  0.23804718  0.06742801    -0.71200
O70         O  0.25874813  0.23703660  0.93589701    -0.71400
O71         O  0.29578429  0.27280187  0.99964455    -0.71300
O72         O  0.22358937  0.20254144  0.00373187    -0.71300
O73         O  0.20088121  0.22688724  0.99842714    -0.71300
O74         O  0.27319311  0.29719657  0.00610041    -0.71300
O75         O  0.23873362  0.26400705  0.93628820    -0.71200
O76         O  0.23536628  0.26002721  0.06809817    -0.71400
V77         V  0.25923921  0.23808977  0.00166123     1.35200
V78         V  0.23746385  0.26158805  0.00220674     1.35200
C79         C  0.24776145  0.24870385  0.09012188     0.78000
C80         C  0.24884164  0.25067800  0.91370914     0.78100
C81         C  0.29675726  0.29691780  0.00320465     0.77900
C82         C  0.20001568  0.20278667  0.00099722     0.77900
O83         O  0.24134795  0.26697882  0.43571614    -0.71200
O84         O  0.23641241  0.26327798  0.56707401    -0.71400
O85         O  0.27542738  0.29980714  0.50566355    -0.71300
O86         O  0.20243803  0.23038071  0.49717043    -0.71300
O87         O  0.22417994  0.20544355  0.50762619    -0.71300
O88         O  0.29711587  0.27468913  0.49692611    -0.71300
O89         O  0.26295483  0.24278433  0.56803535    -0.71200
O90         O  0.25812997  0.23721187  0.43641552    -0.71400
V91         V  0.23930443  0.26468873  0.50139551     1.35200
V92         V  0.26024307  0.24047994  0.50222410     1.35200
C93         C  0.24958581  0.25186127  0.41366836     0.78000
C94         C  0.24953315  0.25306732  0.58995513     0.78100
C95         C  0.29867702  0.29904444  0.50120764     0.77900
C96         C  0.20092209  0.20610549  0.50268550     0.77900
C97         C  0.24103350  0.25776663  0.79445977     0.30300
C98         C  0.23160571  0.26559503  0.75436741    -0.36000
C99         C  0.24009052  0.25913849  0.71199974     0.16300
C100        C  0.25669699  0.24589837  0.70925179     0.22100
C101        C  0.26599427  0.23795594  0.74929796    -0.34100
C102        C  0.25749039  0.24437254  0.79161300     0.16200
O103        O  0.23583024  0.26191317  0.83771485    -0.26100
C104        C  0.24904778  0.25091813  0.86278796     0.06000
C105        C  0.26282538  0.23967147  0.83595946    -0.31000
O106        O  0.26228011  0.24205785  0.66610389    -0.22900
C107        C  0.24907436  0.25296741  0.64086411    -0.02900
C108        C  0.23487702  0.26386481  0.66752802    -0.17300
H109        H  0.21865274  0.27605669  0.75608266     0.20700
H110        H  0.27900051  0.22755086  0.74758263     0.19100
H111        H  0.27508831  0.22962450  0.84752107     0.19000
H112        H  0.22256867  0.27382630  0.65579962     0.14900
C113        C  0.25237324  0.24025167  0.29457066     0.30300
C114        C  0.25707625  0.22816596  0.25454838    -0.36000
C115        C  0.25223643  0.23800128  0.21213453     0.16300
C116        C  0.24314755  0.25812440  0.20930523     0.22100
C117        C  0.23847693  0.27019844  0.24926082    -0.34100
C118        C  0.24348143  0.26051630  0.29158972     0.16200
O119        O  0.25581365  0.23446528  0.33786210    -0.26100
C120        C  0.24903448  0.25127782  0.36277633     0.06000
C121        C  0.24120270  0.26792883  0.33583038    -0.31000
O122        O  0.24006314  0.26432157  0.16615446    -0.22900
C123        C  0.24748549  0.24813452  0.14098555    -0.02900
C124        C  0.25527283  0.23131511  0.16767976    -0.17300
H125        H  0.26419096  0.21237553  0.25633704     0.20700
H126        H  0.23157477  0.28615460  0.24746404     0.19100
H127        H  0.23479744  0.28327949  0.34724981     0.19000
H128        H  0.26219135  0.21641411  0.15597369     0.14900
C129        C  0.24122631  0.48090359  0.70656894     0.30300
C130        C  0.23371180  0.46382412  0.74681317    -0.36000
C131        C  0.23999102  0.47886548  0.78895314     0.16300
C132        C  0.25289156  0.00865369  0.79142471     0.22100
C133        C  0.26035591  0.02571768  0.75116574    -0.34100
C134        C  0.25401633  0.01066785  0.70902949     0.16200
O135        O  0.23721915  0.47139742  0.66349467    -0.26100
C136        C  0.24753758  0.99538551  0.63810817     0.06000
C137        C  0.25824139  0.02047176  0.66452724    -0.31000
O138        O  0.25688957  0.01817280  0.83450559    -0.22900
C139        C  0.24641947  0.99414559  0.85991569    -0.02900
C140        C  0.23555721  0.46904436  0.83344506    -0.17300
H141        H  0.22364200  0.44045691  0.74537365     0.20700
H142        H  0.27038411  0.04908115  0.75259087     0.19100
H143        H  0.26769802  0.04265559  0.65261815     0.19000
H144        H  0.22595176  0.44684242  0.84533165     0.14900
C145        C  0.25517609  0.00802853  0.29162664     0.30300
C146        C  0.26537491  0.02513808  0.25145684    -0.36000
C147        C  0.25654907  0.01021163  0.20921346     0.16300
C148        C  0.23896193  0.48049237  0.20658342     0.22100
C149        C  0.22873614  0.46339431  0.24675277    -0.34100
C150        C  0.23751536  0.47831852  0.28899658     0.16200
O151        O  0.26064946  0.01743042  0.33476686    -0.26100
C152        C  0.24631976  0.99342475  0.36007066     0.06000
C153        C  0.23150624  0.46844841  0.33346456    -0.31000
O154        O  0.23335827  0.47108754  0.16344702    -0.22900
C155        C  0.24748594  0.99511263  0.13816095    -0.02900
C156        C  0.26225966  0.02009966  0.16474569    -0.17300
H157        H  0.27914975  0.04844884  0.25302586     0.20700
H158        H  0.21486425  0.44009629  0.24518146     0.19100
H159        H  0.21827394  0.44629310  0.34523986     0.19000
H160        H  0.27528364  0.04227997  0.15296237     0.14900
C161        C  0.08667638  0.09943569  0.48418041     0.30300
C162        C  0.10200269  0.12753922  0.46561449    -0.36000
C163        C  0.12935778  0.14584762  0.48503668     0.16300
C164        C  0.14104322  0.13689576  0.51967292     0.22100
C165        C  0.12535935  0.10906284  0.53910546    -0.34100
C166        C  0.09779567  0.09096427  0.52026455     0.16200
O167        O  0.06097658  0.07862336  0.47072055    -0.26100
C168        C  0.05525892  0.05658871  0.49901138     0.06000
C169        C  0.07733217  0.06325982  0.53101023    -0.31000
O170        O  0.16768555  0.15692304  0.53063811    -0.22900
C171        C  0.17287526  0.17916900  0.50336195    -0.02900
C172        C  0.14974547  0.17367673  0.47456381    -0.17300
H173        H  0.09331171  0.13454462  0.43772790     0.20700
H174        H  0.13415592  0.10191764  0.56663248     0.19100
H175        H  0.07820343  0.04959861  0.55804832     0.19000
H176        H  0.14863091  0.18773152  0.44849655     0.14900
C177        C  0.35911141  0.36784006  0.51804120     0.30300
C178        C  0.37514067  0.39543688  0.53789672    -0.36000
C179        C  0.40302306  0.41312761  0.51971950     0.16300
C180        C  0.41419554  0.40453158  0.48388096     0.22100
C181        C  0.39848003  0.37662572  0.46485172    -0.34100
C182        C  0.37074888  0.35870014  0.48360122     0.16200
O183        O  0.33224116  0.34815231  0.52867024    -0.26100
C184        C  0.32680680  0.32590711  0.50137068     0.06000
C185        C  0.35001637  0.33107964  0.47285513    -0.31000
O186        O  0.44022281  0.42509436  0.47093569    -0.22900
C187        C  0.44599312  0.44708938  0.49922795    -0.02900
C188        C  0.42372752  0.44058068  0.53085650    -0.17300
H189        H  0.36637031  0.40271839  0.56526374     0.20700
H190        H  0.40715416  0.36949713  0.43712323     0.19100
H191        H  0.35106128  0.31688679  0.44703820     0.19000
H192        H  0.42282370  0.45422947  0.55782398     0.14900
C193        C  0.14130550  0.00694998  0.48336657     0.30300
C194        C  0.12651755  0.01986524  0.46342425    -0.36000
C195        C  0.09833333  0.01000930  0.47986678     0.16300
C196        C  0.08582006  0.48944527  0.51439632     0.22100
C197        C  0.10037086  0.47604913  0.53369037    -0.34100
C198        C  0.12836978  0.48544492  0.51648998     0.16200
O199        O  0.16794236  0.01308690  0.47339119    -0.26100
C200        C  0.17187507  0.99482134  0.49965945     0.06000
C201        C  0.14798293  0.47696097  0.52703246    -0.31000
O202        O  0.05955374  0.48412640  0.52535505    -0.22900
C203        C  0.05501805  0.00126578  0.49709830    -0.02900
C204        C  0.07832969  0.01751422  0.46747381    -0.17300
H205        H  0.13629210  0.03640743  0.43688066     0.20700
H206        H  0.09052812  0.45943844  0.56011497     0.19100
H207        H  0.14568082  0.46058880  0.55168234     0.19000
H208        H  0.08027520  0.03273303  0.44083909     0.14900
C209        C  0.36498725  0.50656683  0.51482853     0.30300
C210        C  0.39295065  0.51960890  0.53386680    -0.36000
C211        C  0.41130062  0.51008195  0.51624323     0.16300
C212        C  0.40295719  0.98961527  0.48164408     0.22100
C213        C  0.37476475  0.97604226  0.46339707    -0.34100
C214        C  0.35619193  0.98512961  0.48168189     0.16200
O215        O  0.34453573  0.51270308  0.52529954    -0.26100
C216        C  0.32220124  0.99454126  0.49921641     0.06000
C217        C  0.32806848  0.97670296  0.47162973    -0.31000
O218        O  0.42389842  0.98455134  0.46950986    -0.22900
C219        C  0.44587497  0.00170141  0.49718167    -0.02900
C220        C  0.43904802  0.51777854  0.52744454    -0.17300
H221        H  0.39993832  0.53609005  0.56042354     0.20700
H222        H  0.36782786  0.95960613  0.43677988     0.19100
H223        H  0.31394673  0.96056949  0.44681772     0.19000
H224        H  0.45256734  0.53289084  0.55391138     0.14900
C225        C  0.13073312  0.14306291  0.98342589     0.30300
C226        C  0.10388316  0.12614411  0.96133032    -0.36000
C227        C  0.08630487  0.09818454  0.97948217     0.16300
C228        C  0.09429245  0.08798897  0.01741447     0.22100
C229        C  0.12124388  0.10461164  0.03890782    -0.34100
C230        C  0.13907379  0.13220293  0.02013842     0.16200
O231        O  0.15079544  0.16970899  0.97217526    -0.26100
C232        C  0.17232220  0.17556221  0.00155247     0.06000
C233        C  0.16632750  0.15303010  0.03195274    -0.31000
O234        O  0.07422177  0.06175559  0.02978328    -0.22900
C235        C  0.05318475  0.05453943  0.99895652    -0.02900
C236        C  0.05966517  0.07637080  0.96640932    -0.17300
H237        H  0.09725558  0.13413220  0.93197306     0.20700
H238        H  0.12789628  0.09651828  0.06810226     0.19100
H239        H  0.18004763  0.15225919  0.05897611     0.19000
H240        H  0.04642060  0.07632732  0.93789984     0.14900
C241        C  0.35743474  0.36545499  0.02204650     0.30300
C242        C  0.37412444  0.39252024  0.04353532    -0.36000
C243        C  0.40216676  0.41009114  0.02558085     0.16300
C244        C  0.41269170  0.40190130  0.98832917     0.22100
C245        C  0.39632356  0.37463724  0.96757775    -0.34100
C246        C  0.36859729  0.35680522  0.98619050     0.16200
O247        O  0.33050894  0.34571794  0.03258761    -0.26100
C248        C  0.32468994  0.32400344  0.00371502     0.06000
C249        C  0.34760835  0.32957823  0.97431202    -0.31000
O250        O  0.43872560  0.42229920  0.97537371    -0.22900
C251        C  0.44548522  0.44371535  0.00529366    -0.02900
C252        C  0.42354761  0.43715652  0.03770891    -0.17300
H253        H  0.36578799  0.39944435  0.07203558     0.20700
H254        H  0.40457556  0.36788426  0.93872935     0.19100
H255        H  0.34839102  0.31578403  0.94747566     0.19000
H256        H  0.42309655  0.45077426  0.06515411     0.14900
C257        C  0.08714839  0.49236773  0.98024994     0.30300
C258        C  0.10421093  0.48353353  0.95572787    -0.36000
C259        C  0.12992172  0.48869190  0.97760535     0.16300
C260        C  0.13846895  0.00207040  0.02024859     0.22100
C261        C  0.12113758  0.01033972  0.04512087    -0.34100
C262        C  0.09527988  0.00478742  0.02356599     0.16200
O263        O  0.06221610  0.48958593  0.96657339    -0.26100
C264        C  0.05440444  0.00052120  0.00153712     0.06000
C265        C  0.07381101  0.00958921  0.03840728    -0.31000
O266        O  0.16377576  0.00572697  0.03352518    -0.22900
C267        C  0.17124549  0.99402108  0.99936162    -0.02900
C268        C  0.15101040  0.48290950  0.96375651    -0.17300
H269        H  0.09787617  0.47333626  0.92203288     0.20700
H270        H  0.12740442  0.02045050  0.07888958     0.19100
H271        H  0.07208553  0.01806765  0.07161738     0.19000
H272        H  0.15211603  0.47278339  0.93188160     0.14900
C273        C  0.41116503  0.00707108  0.01482232     0.30300
C274        C  0.39504112  0.01880440  0.03389939    -0.36000
C275        C  0.36692747  0.00788996  0.01635055     0.16300
C276        C  0.35520080  0.48640671  0.98310221     0.22100
C277        C  0.37160315  0.47517851  0.96323335    -0.34100
C278        C  0.39994503  0.48656481  0.98010851     0.16200
O279        O  0.43770550  0.01376322  0.02665750    -0.26100
C280        C  0.44382127  0.99765752  0.99869955     0.06000
C281        C  0.42121155  0.48064240  0.96845763    -0.31000
O282        O  0.32813680  0.47875484  0.97290467    -0.22900
C283        C  0.32276138  0.99599298  0.99932796    -0.02900
C284        C  0.34608836  0.01465808  0.02685214    -0.17300
H285        H  0.40378617  0.03524796  0.06059683     0.20700
H286        H  0.36287892  0.45870986  0.93657375     0.19100
H287        H  0.42045528  0.46577390  0.94220430     0.19000
H288        H  0.34727820  0.03053568  0.05148679     0.14900
C289        C  0.49497965  0.13692698  0.47755207     0.30300
C290        C  0.48282354  0.10930888  0.45750509    -0.36000
C291        C  0.49278627  0.09126094  0.47488607     0.16300
C292        C  0.01282112  0.09956217  0.51022849     0.22100
C293        C  0.02564291  0.12748222  0.52931798    -0.34100
C294        C  0.01610656  0.14575702  0.51131690     0.16200
O295        O  0.48803776  0.15689130  0.46784464    -0.26100
C296        C  0.00538128  0.17898979  0.49501347     0.06000
C297        C  0.02351682  0.17345270  0.52252138    -0.31000
O298        O  0.01789602  0.07871111  0.52273485    -0.22900
C299        C  0.00127290  0.05683391  0.49453061    -0.02900
C300        C  0.48550971  0.06366529  0.46348751    -0.17300
H301        H  0.46650000  0.10226979  0.43063726     0.20700
H302        H  0.04168198  0.13435197  0.55661075     0.19100
H303        H  0.03908402  0.18742665  0.54813886     0.19000
H304        H  0.47058014  0.05011450  0.43684406     0.14900
C305        C  0.00821302  0.36774261  0.47963457     0.30300
C306        C  0.01953440  0.39508143  0.45876417    -0.36000
C307        C  0.00926246  0.41283583  0.47619459     0.16300
C308        C  0.48964862  0.40455733  0.51228665     0.22100
C309        C  0.47773494  0.37690294  0.53241356    -0.34100
C310        C  0.48761652  0.35889553  0.51439715     0.16200
O311        O  0.01540465  0.34801317  0.46959756    -0.26100
C312        C  0.99880798  0.32603005  0.49764639     0.06000
C313        C  0.48088257  0.33141209  0.52604628    -0.31000
O314        O  0.48410468  0.42517603  0.52439769    -0.22900
C315        C  0.00013392  0.44687395  0.49531730    -0.02900
C316        C  0.01582834  0.44011112  0.46402406    -0.17300
H317        H  0.03544278  0.40212072  0.43113862     0.20700
H318        H  0.46205312  0.37000815  0.56036619     0.19100
H319        H  0.46574847  0.31741428  0.55223705     0.19000
H320        H  0.03030878  0.45353660  0.43670931     0.14900
C321        C  0.49218065  0.24542214  0.79051296     0.30300
C322        C  0.47481414  0.23514730  0.75077864    -0.36000
C323        C  0.48942972  0.24402706  0.70823286     0.16300
C324        C  0.01910940  0.26189727  0.70484406     0.22100
C325        C  0.03652508  0.27219187  0.74467705    -0.34100
C326        C  0.02189046  0.26318611  0.78733580     0.16200
O327        O  0.48298332  0.23969261  0.83375657    -0.26100
C328        C  0.00709598  0.25384939  0.85871190     0.06000
C329        C  0.03199924  0.26886732  0.83173406    -0.31000
O330        O  0.02812381  0.26741348  0.66137861    -0.22900
C331        C  0.00386370  0.25281468  0.63677760    -0.02900
C332        C  0.47916660  0.23788757  0.66411081    -0.17300
H333        H  0.45152443  0.22113085  0.75289433     0.20700
H334        H  0.05982306  0.28614594  0.74256343     0.19100
H335        H  0.05422344  0.28205665  0.84320223     0.19000
H336        H  0.45689032  0.22448135  0.65301062     0.14900
C337        C  0.48817881  0.24536196  0.20505411     0.30300
C338        C  0.47071319  0.23677762  0.24500921    -0.36000
C339        C  0.48552443  0.24481393  0.28748657     0.16300
C340        C  0.01542923  0.26021368  0.29039877     0.22100
C341        C  0.03285032  0.26888894  0.25053033    -0.36500
C342        C  0.01806949  0.26083411  0.20816150     0.16200
O343        O  0.47903489  0.24004195  0.16171884    -0.26100
C344        C  0.00342992  0.25225074  0.13693246     0.06000
C345        C  0.02834637  0.26550663  0.16398864    -0.31000
O346        O  0.02476206  0.26501970  0.33354768    -0.22900
C347        C  0.00054988  0.25261120  0.35867645    -0.02900
C348        C  0.47544156  0.23974012  0.33193604    -0.17300
H349        H  0.44726346  0.22457066  0.24312028     0.20700
H350        H  0.05630702  0.28090876  0.25242554     0.19100
H351        H  0.05075910  0.27691983  0.15268135     0.19000
H352        H  0.45310517  0.22811525  0.34358849     0.14900
C353        C  0.49224317  0.13382914  0.98346729     0.30300
C354        C  0.47952850  0.10599147  0.96407676    -0.36000
C355        C  0.48912436  0.08770297  0.98177717     0.16300
C356        C  0.00931406  0.09595114  0.01686579     0.22100
C357        C  0.02249502  0.12399391  0.03560404    -0.34100
C358        C  0.01338377  0.14253122  0.01718257     0.16200
O359        O  0.48630899  0.15434744  0.97242675    -0.26100
C360        C  0.50433739  0.17666333  0.99866521     0.06000
C361        C  0.02183544  0.17067686  0.02699187    -0.31000
O362        O  0.01471243  0.07518231  0.02864424    -0.22900
C363        C  0.99800527  0.05335394  0.00038890    -0.02900
C364        C  0.48195677  0.06020059  0.96995602    -0.17300
H365        H  0.46336879  0.09911149  0.93696943     0.20700
H366        H  0.03881927  0.13091484  0.06244776     0.19100
H367        H  0.03789121  0.18480035  0.05190827     0.19000
H368        H  0.46732901  0.04693512  0.94278895     0.14900
C369        C  0.49473256  0.40520644  0.98313095     0.30300
C370        C  0.48509138  0.37861701  0.96075942    -0.36000
C371        C  0.49485019  0.36074326  0.97947939     0.16300
C372        C  0.01340882  0.36873870  0.01696966     0.22100
C373        C  0.02260190  0.39515965  0.03993511    -0.34100
C374        C  0.01225062  0.41275750  0.02180340     0.16200
O375        O  0.48834585  0.42521790  0.97121116    -0.26100
C376        C  0.00123963  0.44564629  0.00326476     0.06000
C377        C  0.01640141  0.43897201  0.03581182    -0.31000
O378        O  0.02021712  0.34881442  0.02800239    -0.22900
C379        C  0.50536248  0.32768329  0.99767610    -0.02900
C380        C  0.48906969  0.33378934  0.96690500    -0.17300
H381        H  0.47083098  0.37224554  0.93100509     0.20700
H382        H  0.03666688  0.40146254  0.06992299     0.19100
H383        H  0.02879414  0.45167192  0.06527150     0.19000
H384        H  0.47518558  0.32036234  0.93915937     0.14900
O385        O  0.48057173  0.74048376  0.06289312    -0.71200
O386        O  0.48272468  0.74106085  0.93107573    -0.71400
O387        O  0.48134300  0.70495005  0.99693754    -0.71300
O388        O  0.48184888  0.77645632  0.99594580    -0.71300
O389        O  0.02897881  0.79989155  0.99980314    -0.71300
O390        O  0.02851204  0.72821538  0.99901148    -0.71300
O391        O  0.02988438  0.76498557  0.93290860    -0.71200
O392        O  0.02773040  0.76336754  0.06451902    -0.71400
V393        V  0.48254251  0.74118702  0.99686773     1.35200
V394        V  0.02786547  0.76363274  0.99887361     1.35200
C395        C  0.00385402  0.75193260  0.08606044     0.78000
C396        C  0.00664484  0.75331000  0.90962238     0.78100
C397        C  0.50480614  0.70442865  0.99815980     0.77900
C398        C  0.50543689  0.80025627  0.99789141     0.77900
O399        O  0.02483421  0.76300242  0.43101993    -0.71200
O400        O  0.02650083  0.76721307  0.56271108    -0.71400
O401        O  0.02733722  0.73026778  0.50032132    -0.71300
O402        O  0.02391931  0.79980647  0.49310116    -0.71300
O403        O  0.47720297  0.77485313  0.50342921    -0.71300
O404        O  0.48039289  0.70535706  0.49334062    -0.71300
O405        O  0.47981147  0.73810903  0.56412715    -0.71200
O406        O  0.47775250  0.74204885  0.43277734    -0.71400
V407        V  0.02482582  0.76463033  0.49684097     1.35200
V408        V  0.47963439  0.74053455  0.49844075     1.35200
C409        C  0.00100176  0.75253611  0.40952804     0.78000
C410        C  0.00340969  0.75271278  0.58582612     0.78100
C411        C  0.00439158  0.70598322  0.49637713     0.77900
C412        C  0.99999598  0.79914134  0.49825997     0.77900
C413        C  0.02549272  0.52629436  0.00105016     0.02800
C414        C  0.02624199  0.50005920  0.00254480     0.02800
C415        C  0.00009266  0.97303084  0.00239791     0.02800
C416        C  0.47298650  0.97214459  0.00181995     0.02800
C417        C  0.47217174  0.49842754  0.00001651     0.02800
C418        C  0.99844081  0.52553382  0.00019034     0.02800
C419        C  0.47390868  0.97520125  0.49751524     0.02800
C420        C  0.00048686  0.97508346  0.49634820     0.02800
C421        C  0.02724786  0.50169337  0.49663581     0.02800
C422        C  0.02737248  0.52844584  0.49718124     0.02800
C423        C  0.00076808  0.52856644  0.49594492     0.02800
C424        C  0.47400098  0.50192522  0.49685118     0.02800
O425        O  0.23540647  0.97096482  0.93339524    -0.71200
O426        O  0.23513141  0.97128164  0.06510579    -0.71400
O427        O  0.19930304  0.97067063  0.99835181    -0.71300
O428        O  0.27127484  0.97162914  0.99897466    -0.71300
O429        O  0.29426684  0.51874479  0.99859330    -0.71300
O430        O  0.22248444  0.51779258  0.00007323    -0.71300
O431        O  0.25891209  0.51839103  0.06465196    -0.71200
O432        O  0.25784901  0.51805736  0.93289475    -0.71400
V433        V  0.23572205  0.97204362  0.99907886     1.35200
V434        V  0.25791646  0.51732070  0.99892405     1.35200
C435        C  0.24653986  0.49442049  0.91077773     0.78000
C436        C  0.24714629  0.49490292  0.08724028     0.78100
C437        C  0.19875680  0.49411480  0.99918224     0.77900
C438        C  0.29494799  0.49538183  0.99887842     0.77900
O439        O  0.26045937  0.51731068  0.43278257    -0.71200
O440        O  0.25680607  0.51829013  0.56428824    -0.71400
O441        O  0.29422672  0.51778541  0.50282451    -0.71300
O442        O  0.22303011  0.51778441  0.49447413    -0.71300
O443        O  0.19951067  0.97101796  0.50432207    -0.71300
O444        O  0.27076552  0.97090476  0.49513851    -0.71300
O445        O  0.23757667  0.97139524  0.56544863    -0.71200
O446        O  0.23266728  0.97046370  0.43393248    -0.71400
V447        V  0.25820750  0.51695417  0.49859798     1.35200
V448        V  0.23554284  0.97176497  0.49966959     1.35200
C449        C  0.24646345  0.49371668  0.41095935     0.78000
C450        C  0.24731648  0.49504198  0.58723627     0.78100
C451        C  0.29460884  0.49435904  0.49901151     0.77900
C452        C  0.19921168  0.49448372  0.49961363     0.77900
O453        O  0.26049198  0.73803866  0.06741625    -0.71200
O454        O  0.25874357  0.73701946  0.93588522    -0.71400
O455        O  0.29577525  0.77278394  0.99964340    -0.71300
O456        O  0.22356775  0.70254026  0.00371315    -0.71300
O457        O  0.20087315  0.72689761  0.99836685    -0.71300
O458        O  0.27319575  0.79719082  0.00608427    -0.71300
O459        O  0.23874987  0.76400897  0.93625122    -0.71200
O460        O  0.23534285  0.76002440  0.06806454    -0.71400
V461        V  0.25922365  0.73807925  0.00164933     1.35200
V462        V  0.23746088  0.76158968  0.00216943     1.35200
C463        C  0.24772856  0.74869486  0.09010104     0.78000
C464        C  0.24884776  0.75066578  0.91368550     0.78100
C465        C  0.29675613  0.79690344  0.00320618     0.77900
C466        C  0.19999940  0.70279409  0.00095974     0.77900
O467        O  0.24134590  0.76697011  0.43571402    -0.71200
O468        O  0.23640831  0.76327382  0.56707148    -0.71400
O469        O  0.27541427  0.79981053  0.50565903    -0.71300
O470        O  0.20244491  0.73036284  0.49717243    -0.71300
O471        O  0.22420645  0.70544534  0.50764031    -0.71300
O472        O  0.29712034  0.77470871  0.49692290    -0.71300
O473        O  0.26297168  0.74280252  0.56803551    -0.71200
O474        O  0.25814549  0.73721790  0.43641904    -0.71400
V475        V  0.23930131  0.76468245  0.50139431     1.35200
V476        V  0.26025860  0.74049133  0.50222839     1.35200
C477        C  0.24959318  0.75185927  0.41366780     0.78000
C478        C  0.24953827  0.75307326  0.58995193     0.78100
C479        C  0.29866891  0.79905825  0.50119618     0.77900
C480        C  0.20094246  0.70609374  0.50269107     0.77900
C481        C  0.24102444  0.75773497  0.79444386     0.30300
C482        C  0.23159542  0.76556667  0.75435865    -0.36000
C483        C  0.24008228  0.75911742  0.71198971     0.16300
C484        C  0.25669151  0.74588046  0.70923446     0.22100
C485        C  0.26598788  0.73793156  0.74927425    -0.34100
C486        C  0.25748175  0.74434140  0.79159215     0.16200
O487        O  0.23582674  0.76188486  0.83769772    -0.26100
C488        C  0.24904780  0.75089317  0.86276700     0.06000
C489        C  0.26282121  0.73964222  0.83593738    -0.31000
O490        O  0.26228023  0.74205186  0.66608570    -0.22900
C491        C  0.24907476  0.75296525  0.64085558    -0.02900
C492        C  0.23487159  0.76385330  0.66752356    -0.17300
H493        H  0.21864365  0.77602875  0.75608039     0.20700
H494        H  0.27899695  0.72752983  0.74755203     0.19100
H495        H  0.27508829  0.72959914  0.84749691     0.19000
H496        H  0.22256167  0.77381532  0.65580126     0.14900
C497        C  0.25236592  0.74024194  0.29456024     0.30300
C498        C  0.25706407  0.72815717  0.25453017    -0.36000
C499        C  0.25220452  0.73798219  0.21211889     0.16300
C500        C  0.24310264  0.75809550  0.20929846     0.22100
C501        C  0.23843425  0.77016598  0.24926156    -0.34100
C502        C  0.24345837  0.76049453  0.29158666     0.16200
O503        O  0.25582378  0.73446572  0.33785140    -0.26100
C504        C  0.24903871  0.75127237  0.36277229     0.06000
C505        C  0.24118744  0.76790945  0.33582987    -0.31000
O506        O  0.24001090  0.76429268  0.16614889    -0.22900
C507        C  0.24744093  0.74811489  0.14096962    -0.02900
C508        C  0.25523918  0.73130114  0.16765875    -0.17300
H509        H  0.26419181  0.71237606  0.25631063     0.20700
H510        H  0.23152270  0.78611522  0.24747309     0.19100
H511        H  0.23477210  0.78325126  0.34725334     0.19000
H512        H  0.26217046  0.71641098  0.15594487     0.14900
C513        C  0.24126788  0.98088390  0.70659317     0.30300
C514        C  0.23378161  0.96381351  0.74684524    -0.36000
C515        C  0.24004984  0.97886091  0.78897839     0.16300
C516        C  0.25286564  0.50866063  0.79141169     0.22100
C517        C  0.26035657  0.52573371  0.75115949    -0.34100
C518        C  0.25400892  0.51069007  0.70901615     0.16200
O519        O  0.23725649  0.97137139  0.66352125    -0.26100
C520        C  0.24753752  0.49541752  0.63808923     0.06000
C521        C  0.25826122  0.52050294  0.66451593    -0.31000
O522        O  0.25687632  0.51817396  0.83449681    -0.22900
C523        C  0.24638320  0.49414102  0.85989822    -0.02900
C524        C  0.23562345  0.96904753  0.83347349    -0.17300
H525        H  0.22373490  0.94044768  0.74541694     0.20700
H526        H  0.27041411  0.54909905  0.75259499     0.19100
H527        H  0.26774975  0.54269049  0.65261421     0.19000
H528        H  0.22603823  0.94684916  0.84536942     0.14900
C529        C  0.25520002  0.50801834  0.29160750     0.30300
C530        C  0.26542019  0.52512648  0.25143853    -0.36000
C531        C  0.25656226  0.51020519  0.20919422     0.16300
C532        C  0.23899775  0.98049260  0.20660288     0.22100
C533        C  0.22879585  0.96339185  0.24677387    -0.34100
C534        C  0.23754259  0.97832176  0.28901708     0.16200
O535        O  0.26069506  0.51741574  0.33474842    -0.26100
C536        C  0.24632808  0.49341473  0.36005178     0.06000
C537        C  0.23154342  0.96845179  0.33348507    -0.31000
O538        O  0.23340826  0.97108636  0.16346526    -0.22900
C539        C  0.24747549  0.49510814  0.13814279    -0.02900
C540        C  0.26228796  0.52009124  0.16472583    -0.17300
H541        H  0.27923617  0.54843230  0.25300925     0.20700
H542        H  0.21496247  0.94008920  0.24520452     0.19100
H543        H  0.21834931  0.94629126  0.34526218     0.19000
H544        H  0.27534953  0.54226611  0.15294134     0.14900
C545        C  0.08670986  0.59941631  0.48411116     0.30300
C546        C  0.10205783  0.62750802  0.46550851    -0.36000
C547        C  0.12940459  0.64581685  0.48495519     0.16300
C548        C  0.14106659  0.63687594  0.51964440     0.22100
C549        C  0.12536459  0.60905151  0.53910309    -0.34100
C550        C  0.09780641  0.59095367  0.52024058     0.16200
O551        O  0.06100701  0.57860953  0.47065100    -0.26100
C552        C  0.05526766  0.55658666  0.49898158     0.06000
C553        C  0.07732606  0.56326021  0.53101064    -0.31000
O554        O  0.16769954  0.65691016  0.53064819    -0.22900
C555        C  0.17290360  0.67914887  0.50334219    -0.02900
C556        C  0.14979562  0.67364382  0.47448468    -0.17300
H557        H  0.09338473  0.63450760  0.43758770     0.20700
H558        H  0.13413953  0.60191498  0.56667358     0.19100
H559        H  0.07817797  0.54960517  0.55807947     0.19000
H560        H  0.14869541  0.68769241  0.44839058     0.14900
C561        C  0.35908453  0.86786393  0.51798053     0.30300
C562        C  0.37510770  0.89546212  0.53782605    -0.36000
C563        C  0.40299955  0.91314104  0.51968238     0.16300
C564        C  0.41418578  0.90453704  0.48387502     0.22100
C565        C  0.39847507  0.87662882  0.46485374    -0.34100
C566        C  0.37073468  0.85871201  0.48357769     0.16200
O567        O  0.33221324  0.84818001  0.52860280    -0.26100
C568        C  0.32679045  0.82592519  0.50133800     0.06000
C569        C  0.35000776  0.83108691  0.47284982    -0.31000
O570        O  0.44022236  0.92509374  0.47095840    -0.22900
C571        C  0.44598387  0.94708970  0.49924334    -0.02900
C572        C  0.42370448  0.94058745  0.53083813    -0.17300
H573        H  0.36632852  0.90275103  0.56516968     0.20700
H574        H  0.40716148  0.86949028  0.43715676     0.19100
H575        H  0.35106323  0.81688153  0.44706901     0.19000
H576        H  0.42279131  0.95423591  0.55779531     0.14900
C577        C  0.14134121  0.50700396  0.48341633     0.30300
C578        C  0.12654955  0.51991162  0.46346265    -0.36000
C579        C  0.09836100  0.51004636  0.47989133     0.16300
C580        C  0.08579125  0.98940459  0.51436656     0.22100
C581        C  0.10033463  0.97599526  0.53363979    -0.34100
C582        C  0.12833149  0.98538722  0.51643398     0.16200
O583        O  0.16797278  0.51313189  0.47342306    -0.26100
C584        C  0.17190387  0.49486255  0.49968322     0.06000
C585        C  0.14794831  0.97691049  0.52699080    -0.31000
O586        O  0.05953509  0.98410365  0.52535452    -0.22900
C587        C  0.05503007  0.50127346  0.49707437    -0.02900
C588        C  0.07834695  0.51752916  0.46746276    -0.17300
H589        H  0.13631979  0.53644559  0.43690836     0.20700
H590        H  0.09049250  0.95938604  0.56006649     0.19100
H591        H  0.14564770  0.96054285  0.55164823     0.19000
H592        H  0.08028932  0.53273880  0.44081533     0.14900
C593        C  0.36496930  0.00654502  0.51488924     0.30300
C594        C  0.39292618  0.01957503  0.53395158    -0.36000
C595        C  0.41128362  0.01006171  0.51631102     0.16300
C596        C  0.40296347  0.48961496  0.48160756     0.22100
C597        C  0.37476492  0.47603178  0.46338232    -0.34100
C598        C  0.35619774  0.48512976  0.48165675     0.16200
O599        O  0.34451575  0.01267861  0.52535974    -0.26100
C600        C  0.32220954  0.49454483  0.49919556     0.06000
C601        C  0.32806789  0.47669137  0.47163135    -0.31000
O602        O  0.42389960  0.48453950  0.46948767    -0.22900
C603        C  0.44588331  0.50170309  0.49713841    -0.02900
C604        C  0.43903134  0.01775849  0.52751419    -0.17300
H605        H  0.39990524  0.03604121  0.56053195     0.20700
H606        H  0.36781795  0.45957703  0.43679394     0.19100
H607        H  0.31393584  0.46053986  0.44685137     0.19000
H608        H  0.45254604  0.03285917  0.55399669     0.14900
C609        C  0.13071754  0.64307065  0.98341500     0.30300
C610        C  0.10386889  0.62614573  0.96132178    -0.36000
C611        C  0.08629240  0.59819110  0.97948969     0.16300
C612        C  0.09428101  0.58800501  0.01743306     0.22100
C613        C  0.12123347  0.60463190  0.03892044    -0.34100
C614        C  0.13906054  0.63221926  0.02013694     0.16200
O615        O  0.15077698  0.66971512  0.97215283    -0.26100
C616        C  0.17230396  0.67557508  0.00153209     0.06000
C617        C  0.16631241  0.65305034  0.03194595    -0.31000
O618        O  0.07420984  0.56177567  0.02981698    -0.22900
C619        C  0.05317341  0.55455229  0.99898658    -0.02900
C620        C  0.05965261  0.57637552  0.96642550    -0.17300
H621        H  0.09724009  0.63412638  0.93195615     0.20700
H622        H  0.12788738  0.59654587  0.06812233     0.19100
H623        H  0.18003486  0.65228560  0.05897113     0.19000
H624        H  0.04640790  0.57632488  0.93790975     0.14900
C625        C  0.35744211  0.86543300  0.02206952     0.30300
C626        C  0.37413696  0.89249646  0.04356247    -0.36000
C627        C  0.40216723  0.91007999  0.02556968     0.16300
C628        C  0.41267540  0.90190334  0.98827896     0.22100
C629        C  0.39630209  0.87464147  0.96752176    -0.34100
C630        C  0.36858970  0.85679648  0.98617361     0.16200
O631        O  0.33052234  0.84568918  0.03263258    -0.26100
C632        C  0.32469327  0.82398389  0.00373272     0.06000
C633        C  0.34759932  0.82957020  0.97429412    -0.31000
O634        O  0.43870373  0.92230628  0.97530690    -0.22900
C635        C  0.44547829  0.94371143  0.00525716    -0.02900
C636        C  0.42355318  0.93714302  0.03770151    -0.17300
H637        H  0.36581302  0.89940969  0.07209567     0.20700
H638        H  0.40454128  0.86789820  0.93864313     0.19100
H639        H  0.34836955  0.81578688  0.94742491     0.19000
H640        H  0.42311695  0.95075071  0.06517860     0.14900
C641        C  0.08714770  0.99235277  0.98022218     0.30300
C642        C  0.10422258  0.98354019  0.95568301    -0.36000
C643        C  0.12992825  0.98868876  0.97756879     0.16300
C644        C  0.13848341  0.50210945  0.02025577     0.22100
C645        C  0.12116386  0.51040068  0.04511312    -0.34100
C646        C  0.09529623  0.50483084  0.02357258     0.16200
O647        O  0.06222248  0.98958454  0.96653576    -0.26100
C648        C  0.05440670  0.50053914  0.00156178     0.06000
C649        C  0.07382642  0.50963075  0.03841540    -0.31000
O650        O  0.16379303  0.50576879  0.03352424    -0.22900
C651        C  0.17124059  0.49402584  0.99938748    -0.02900
C652        C  0.15103176  0.98293117  0.96370362    -0.17300
H653        H  0.09790344  0.97337115  0.92196638     0.20700
H654        H  0.12744353  0.52053491  0.07886433     0.19100
H655        H  0.07210833  0.51812122  0.07161907     0.19000
H656        H  0.15215624  0.97283640  0.93180527     0.14900
C657        C  0.41114851  0.50705566  0.01484906     0.30300
C658        C  0.39502040  0.51878270  0.03393345    -0.36000
C659        C  0.36690089  0.50785516  0.01640156     0.16300
C660        C  0.35522930  0.98645045  0.98303642     0.22100
C661        C  0.37162923  0.97521842  0.96317038    -0.34100
C662        C  0.39996399  0.98658802  0.98006970     0.16200
O663        O  0.43769552  0.51376141  0.02666571    -0.26100
C664        C  0.44381337  0.49765709  0.99870761     0.06000
C665        C  0.42122447  0.98065406  0.96843501    -0.31000
O666        O  0.32816353  0.97879744  0.97284740    -0.22900
C667        C  0.32273759  0.49596142  0.99936076    -0.02900
C668        C  0.34606362  0.51462963  0.02688543    -0.17300
H669        H  0.40376911  0.53523595  0.06061556     0.20700
H670        H  0.36290593  0.95875335  0.93650398     0.19100
H671        H  0.42046955  0.96578935  0.94217493     0.19000
H672        H  0.34725765  0.53051988  0.05149606     0.14900
C673        C  0.49499740  0.63694022  0.47759691     0.30300
C674        C  0.48284888  0.60932896  0.45752821    -0.36000
C675        C  0.49280394  0.59127409  0.47490460     0.16300
C676        C  0.01282369  0.59956058  0.51026734     0.22100
C677        C  0.02563240  0.62747279  0.52939229    -0.34100
C678        C  0.01610581  0.64575715  0.51139005     0.16200
O679        O  0.48807080  0.65691297  0.46786940    -0.26100
C680        C  0.00540538  0.67900670  0.49505209     0.06000
C681        C  0.02351969  0.67345594  0.52259460    -0.31000
O682        O  0.01790099  0.57870609  0.52274871    -0.22900
C683        C  0.00128997  0.55684128  0.49451343    -0.02900
C684        C  0.48553718  0.56368579  0.46347066    -0.17300
H685        H  0.46654098  0.60230226  0.43063630     0.20700
H686        H  0.04165988  0.63433219  0.55670040     0.19100
H687        H  0.03907771  0.68742401  0.54822714     0.19000
H688        H  0.47061798  0.55014616  0.43680626     0.14900
C689        C  0.00820238  0.86774493  0.47963690     0.30300
C690        C  0.01952608  0.89508670  0.45877867    -0.36000
C691        C  0.00924702  0.91283474  0.47620781     0.16300
C692        C  0.48962527  0.90454843  0.51228924     0.22100
C693        C  0.47770630  0.87688941  0.53240025    -0.34100
C694        C  0.48759545  0.85888811  0.51438459     0.16200
O695        O  0.01540324  0.84802217  0.46960374    -0.26100
C696        C  0.99880194  0.82603334  0.49763896     0.06000
C697        C  0.48086419  0.83140478  0.52602673    -0.31000
O698        O  0.48408314  0.92516656  0.52441085    -0.22900
C699        C  0.00012024  0.94687070  0.49534493    -0.02900
C700        C  0.01581637  0.94011198  0.46404974    -0.17300
H701        H  0.03544338  0.90213388  0.43116554     0.20700
H702        H  0.46201842  0.86998832  0.56034349     0.19100
H703        H  0.46572443  0.81740049  0.55220724     0.19000
H704        H  0.03030265  0.95354245  0.43674405     0.14900
C705        C  0.49217103  0.74541068  0.79050535     0.30300
C706        C  0.47480347  0.73515740  0.75076714    -0.36000
C707        C  0.48942112  0.74404772  0.70822276     0.16300
C708        C  0.01910258  0.76190765  0.70484029     0.22100
C709        C  0.03651763  0.77218132  0.74467543    -0.34100
C710        C  0.02188202  0.76316455  0.78733108     0.16200
O711        O  0.48297356  0.73967785  0.83374971    -0.26100
C712        C  0.00708765  0.75382494  0.85870667     0.06000
C713        C  0.03199174  0.76883459  0.83172895    -0.31000
O714        O  0.02812211  0.76742791  0.66137810    -0.22900
C715        C  0.00386397  0.75284106  0.63677064    -0.02900
C716        C  0.47916181  0.73792015  0.66409699    -0.17300
H717        H  0.45151287  0.72114915  0.75287859     0.20700
H718        H  0.05981599  0.78612653  0.74256548     0.19100
H719        H  0.05421618  0.78202011  0.84319705     0.19000
H720        H  0.45688590  0.72451982  0.65298991     0.14900
C721        C  0.48815824  0.74535603  0.20505312     0.30300
C722        C  0.47069611  0.73677601  0.24501309    -0.36000
C723        C  0.48551227  0.74481948  0.28748715     0.16300
C724        C  0.01541752  0.76021855  0.29039057     0.22100
C725        C  0.03283392  0.76888725  0.25051867    -0.36500
C726        C  0.01804933  0.76082886  0.20815491     0.16200
O727        O  0.47901237  0.74003702  0.16171810    -0.26100
C728        C  0.00340753  0.75224827  0.13692973     0.06000
C729        C  0.02832421  0.76550362  0.16398280    -0.31000
O730        O  0.02475692  0.76503031  0.33353530    -0.22900
C731        C  0.00054892  0.75262595  0.35867268    -0.02900
C732        C  0.47543629  0.73975390  0.33194094    -0.17300
H733        H  0.44724576  0.72456971  0.24313024     0.20700
H734        H  0.05629048  0.78090720  0.25240755     0.19100
H735        H  0.05073801  0.77692027  0.15267295     0.19000
H736        H  0.45310153  0.72813065  0.34360181     0.14900
C737        C  0.49223970  0.63383996  0.98347638     0.30300
C738        C  0.47951506  0.60599866  0.96409746    -0.36000
C739        C  0.48910343  0.58770587  0.98180651     0.16300
C740        C  0.00929178  0.59595256  0.01689673     0.22100
C741        C  0.02247888  0.62399719  0.03562829    -0.34100
C742        C  0.01337921  0.64254002  0.01719288     0.16200
O743        O  0.48631596  0.65436337  0.97242402    -0.26100
C744        C  0.50435043  0.67667996  0.99865519     0.06000
C745        C  0.02184318  0.67069019  0.02698827    -0.31000
O746        O  0.01469239  0.57518466  0.02867082    -0.22900
C747        C  0.99798928  0.55335786  0.00041038    -0.02900
C748        C  0.48193907  0.56020465  0.96998006    -0.17300
H749        H  0.46335783  0.59912117  0.93698595     0.20700
H750        H  0.03880316  0.63091704  0.06247213     0.19100
H751        H  0.03789893  0.68481227  0.05190569     0.19000
H752        H  0.46731559  0.54694172  0.94280741     0.14900
C753        C  0.49470239  0.90518684  0.98313388     0.30300
C754        C  0.48503770  0.87858601  0.96079132    -0.36000
C755        C  0.49480464  0.86071825  0.97950348     0.16300
C756        C  0.01339464  0.86873086  0.01695503     0.22100
C757        C  0.02261182  0.89516364  0.03989204    -0.34100
C758        C  0.01224960  0.91275381  0.02177278     0.16200
O759        O  0.48831026  0.92519441  0.97122026    -0.26100
C760        C  0.00122987  0.94563540  0.00324623     0.06000
C761        C  0.01641113  0.93897218  0.03577059    -0.31000
O762        O  0.02020807  0.84881038  0.02798071    -0.22900
C763        C  0.50532453  0.82766543  0.99769049    -0.02900
C764        C  0.48900767  0.83375711  0.96695078    -0.17300
H765        H  0.47075357  0.87220157  0.93106559     0.20700
H766        H  0.03670072  0.90148004  0.06985188     0.19100
H767        H  0.02882243  0.95168062  0.06521161     0.19000
H768        H  0.47510126  0.82031794  0.93923281     0.14900
O769        O  0.98058928  0.24049296  0.06289872    -0.71200
O770        O  0.98273322  0.24106674  0.93107994    -0.71400
O771        O  0.98133959  0.20494645  0.99694470    -0.71300
O772        O  0.98187425  0.27647033  0.99594492    -0.71300
O773        O  0.52900362  0.29989251  0.99980738    -0.71300
O774        O  0.52850874  0.22819960  0.99899902    -0.71300
O775        O  0.52989325  0.26498512  0.93290854    -0.71200
O776        O  0.52774773  0.26335633  0.06451648    -0.71400
V777        V  0.98255424  0.24119261  0.99687197     1.35200
V778        V  0.52787709  0.26362563  0.99887117     1.35200
C779        C  0.50387349  0.25193213  0.08606234     0.78000
C780        C  0.50665316  0.25331977  0.90962536     0.78100
C781        C  0.00479860  0.20441616  0.99816063     0.77900
C782        C  0.00546633  0.30026705  0.99788710     0.77900
O783        O  0.52482528  0.26299395  0.43102767    -0.71200
O784        O  0.52649240  0.26718468  0.56271539    -0.71400
O785        O  0.52731532  0.23024548  0.50030263    -0.71300
O786        O  0.52391687  0.29979369  0.49312506    -0.71300
O787        O  0.97719788  0.27484713  0.50342543    -0.71300
O788        O  0.98036900  0.20534069  0.49334704    -0.71300
O789        O  0.97979957  0.23810028  0.56413517    -0.71200
O790        O  0.97774307  0.24203388  0.43277775    -0.71400
V791        V  0.52481413  0.26461222  0.49684615     1.35200
V792        V  0.97962160  0.24052350  0.49844459     1.35200
C793        C  0.50099452  0.25252250  0.40953220     0.78000
C794        C  0.50340173  0.25269089  0.58583248     0.78100
C795        C  0.50436677  0.20596383  0.49635925     0.77900
C796        C  0.49999505  0.29913364  0.49826943     0.77900
C797        C  0.52549968  0.02628388  0.00102110     0.02800
C798        C  0.52624225  0.00004618  0.00251706     0.02800
C799        C  0.50009628  0.47304082  0.00242201     0.02800
C800        C  0.97298799  0.47215070  0.00184420     0.02800
C801        C  0.97217714  0.99842408  0.00000495     0.02800
C802        C  0.49845006  0.02552776  0.00017344     0.02800
C803        C  0.97391769  0.47520249  0.49748011     0.02800
C804        C  0.50049702  0.47508533  0.49631012     0.02800
C805        C  0.52723853  0.00169123  0.49667507     0.02800
C806        C  0.52736390  0.02844484  0.49721832     0.02800
C807        C  0.50075739  0.02856326  0.49598176     0.02800
C808        C  0.97399192  0.00192307  0.49689232     0.02800
O809        O  0.73538900  0.47095512  0.93337877    -0.71200
O810        O  0.73511447  0.47127341  0.06509198    -0.71400
O811        O  0.69929029  0.47066743  0.99834067    -0.71300
O812        O  0.77125357  0.47161089  0.99896838    -0.71300
O813        O  0.79427903  0.01876283  0.99861864    -0.71300
O814        O  0.72248965  0.01779604  0.00005987    -0.71300
O815        O  0.75890926  0.01839918  0.06466834    -0.71200
O816        O  0.75786988  0.01806726  0.93290742    -0.71400
V817        V  0.73570557  0.47203355  0.99906544     1.35200
V818        V  0.75792524  0.01733066  0.99893671     1.35200
C819        C  0.74656417  0.99442949  0.91079314     0.78000
C820        C  0.74715369  0.99491018  0.08725633     0.78100
C821        C  0.69876458  0.99411575  0.99916938     0.77900
C822        C  0.79496651  0.99540332  0.99888069     0.77900
O823        O  0.76044268  0.01731436  0.43281038    -0.71200
O824        O  0.75678832  0.01826159  0.56431694    -0.71400
O825        O  0.79421419  0.01777941  0.50284440    -0.71300
O826        O  0.72300716  0.01776321  0.49451222    -0.71300
O827        O  0.69952496  0.47104259  0.50432537    -0.71300
O828        O  0.77077112  0.47090972  0.49513431    -0.71300
O829        O  0.73759166  0.47142359  0.56544151    -0.71200
O830        O  0.73266799  0.47046244  0.43392579    -0.71400
V831        V  0.75819018  0.01694125  0.49862700     1.35200
V832        V  0.73555186  0.47177850  0.49966474     1.35200
C833        C  0.74645492  0.99372304  0.41097713     0.78000
C834        C  0.74730330  0.99501031  0.58725448     0.78100
C835        C  0.79460057  0.99435524  0.49902471     0.77900
C836        C  0.69919042  0.99445597  0.49962016     0.77900
O837        O  0.76052111  0.23804713  0.06742799    -0.71200
O838        O  0.75874817  0.23703661  0.93589697    -0.71400
O839        O  0.79578431  0.27280192  0.99964457    -0.71300
O840        O  0.72358943  0.20254144  0.00373187    -0.71300
O841        O  0.70088133  0.22688726  0.99842715    -0.71300
O842        O  0.77319308  0.29719660  0.00610044    -0.71300
O843        O  0.73873363  0.26400710  0.93628821    -0.71200
O844        O  0.73536632  0.26002719  0.06809820    -0.71400
V845        V  0.75923924  0.23808978  0.00166120     1.35200
V846        V  0.73746387  0.26158807  0.00220677     1.35200
C847        C  0.74776156  0.24870384  0.09012186     0.78000
C848        C  0.74884161  0.25067800  0.91370915     0.78100
C849        C  0.79675724  0.29691785  0.00320463     0.77900
C850        C  0.70001577  0.20278667  0.00099726     0.77900
O851        O  0.74134789  0.26697885  0.43571612    -0.71200
O852        O  0.73641235  0.26327798  0.56707399    -0.71400
O853        O  0.77542734  0.29980715  0.50566354    -0.71300
O854        O  0.70243798  0.23038069  0.49717045    -0.71300
O855        O  0.72417994  0.20544359  0.50762621    -0.71300
O856        O  0.79711585  0.27468910  0.49692610    -0.71300
O857        O  0.76295476  0.24278433  0.56803536    -0.71200
O858        O  0.75812991  0.23721190  0.43641555    -0.71400
V859        V  0.73930437  0.26468874  0.50139551     1.35200
V860        V  0.76024304  0.24047996  0.50222410     1.35200
C861        C  0.74958569  0.25186126  0.41366837     0.78000
C862        C  0.74953309  0.25306733  0.58995512     0.78100
C863        C  0.79867700  0.29904442  0.50120761     0.77900
C864        C  0.70092207  0.20610549  0.50268553     0.77900
C865        C  0.74103355  0.25776655  0.79445977     0.30300
C866        C  0.73160571  0.26559501  0.75436742    -0.36000
C867        C  0.74009053  0.25913845  0.71199971     0.16300
C868        C  0.75669700  0.24589836  0.70925174     0.22100
C869        C  0.76599428  0.23795588  0.74929794    -0.34100
C870        C  0.75749041  0.24437250  0.79161299     0.16200
O871        O  0.73583024  0.26191312  0.83771484    -0.26100
C872        C  0.74904781  0.25091813  0.86278799     0.06000
C873        C  0.76282533  0.23967149  0.83595946    -0.31000
O874        O  0.76228006  0.24205786  0.66610381    -0.22900
C875        C  0.74907425  0.25296740  0.64086409    -0.02900
C876        C  0.73487702  0.26386486  0.66752807    -0.17300
H877        H  0.71865328  0.27605652  0.75608260     0.20700
H878        H  0.77900051  0.22755077  0.74758264     0.19100
H879        H  0.77508845  0.22962455  0.84752117     0.19000
H880        H  0.72256851  0.27382640  0.65579962     0.14900
C881        C  0.75237322  0.24025169  0.29457072     0.30300
C882        C  0.75707625  0.22816595  0.25454840    -0.36000
C883        C  0.75223641  0.23800123  0.21213441     0.16300
C884        C  0.74314768  0.25812436  0.20930515     0.22100
C885        C  0.73847694  0.27019837  0.24926080    -0.34100
C886        C  0.74348147  0.26051621  0.29158978     0.16200
O887        O  0.75581361  0.23446525  0.33786214    -0.26100
C888        C  0.74903455  0.25127788  0.36277634     0.06000
C889        C  0.74120269  0.26792885  0.33583039    -0.31000
O890        O  0.74006319  0.26432153  0.16615444    -0.22900
C891        C  0.74748556  0.24813444  0.14098552    -0.02900
C892        C  0.75527289  0.23131505  0.16767974    -0.17300
H893        H  0.76419061  0.21237583  0.25633711     0.20700
H894        H  0.73157533  0.28615421  0.24746403     0.19100
H895        H  0.73479762  0.28327946  0.34724966     0.19000
H896        H  0.76219170  0.21641388  0.15597359     0.14900
C897        C  0.74122635  0.48090363  0.70656890     0.30300
C898        C  0.73371183  0.46382413  0.74681316    -0.36000
C899        C  0.73999098  0.47886547  0.78895314     0.16300
C900        C  0.75289150  0.00865369  0.79142472     0.22100
C901        C  0.76035588  0.02571768  0.75116575    -0.34100
C902        C  0.75401638  0.01066786  0.70902949     0.16200
O903        O  0.73721920  0.47139749  0.66349466    -0.26100
C904        C  0.74753761  0.99538551  0.63810818     0.06000
C905        C  0.75824137  0.02047177  0.66452724    -0.31000
O906        O  0.75688960  0.01817281  0.83450560    -0.22900
C907        C  0.74641952  0.99414560  0.85991569    -0.02900
C908        C  0.73555712  0.46904434  0.83344506    -0.17300
H909        H  0.72364219  0.44045693  0.74537365     0.20700
H910        H  0.77038391  0.04908113  0.75259088     0.19100
H911        H  0.76769816  0.04265559  0.65261816     0.19000
H912        H  0.72595167  0.44684240  0.84533165     0.14900
C913        C  0.75517613  0.00802855  0.29162663     0.30300
C914        C  0.76537494  0.02513809  0.25145683    -0.36000
C915        C  0.75654913  0.01021163  0.20921346     0.16300
C916        C  0.73896190  0.48049236  0.20658341     0.22100
C917        C  0.72873612  0.46339429  0.24675277    -0.34100
C918        C  0.73751533  0.47831849  0.28899658     0.16200
O919        O  0.76064948  0.01743043  0.33476686    -0.26100
C920        C  0.74631982  0.99342475  0.36007066     0.06000
C921        C  0.73150622  0.46844839  0.33346456    -0.31000
O922        O  0.73335834  0.47108754  0.16344701    -0.22900
C923        C  0.74748581  0.99511262  0.13816095    -0.02900
C924        C  0.76225965  0.02009965  0.16474568    -0.17300
H925        H  0.77915012  0.04844891  0.25302585     0.20700
H926        H  0.71486392  0.44009621  0.24518143     0.19100
H927        H  0.71827363  0.44629303  0.34523992     0.19000
H928        H  0.77528333  0.04227992  0.15296238     0.14900
C929        C  0.58667638  0.09943565  0.48418047     0.30300
C930        C  0.60200274  0.12753921  0.46561451    -0.36000
C931        C  0.62935783  0.14584757  0.48503681     0.16300
C932        C  0.64104327  0.13689575  0.51967286     0.22100
C933        C  0.62535934  0.10906281  0.53910543    -0.34100
C934        C  0.59779563  0.09096423  0.52026449     0.16200
O935        O  0.56097660  0.07862334  0.47072062    -0.26100
C936        C  0.55525896  0.05658868  0.49901146     0.06000
C937        C  0.57733220  0.06325981  0.53101029    -0.31000
O938        O  0.66768558  0.15692305  0.53063819    -0.22900
C939        C  0.67287527  0.17916898  0.50336204    -0.02900
C940        C  0.64974550  0.17367668  0.47456385    -0.17300
H941        H  0.59331208  0.13454452  0.43772825     0.20700
H942        H  0.63415558  0.10191782  0.56663220     0.19100
H943        H  0.57820364  0.04959842  0.55804858     0.19000
H944        H  0.64863110  0.18773133  0.44849672     0.14900
C945        C  0.85911141  0.36784009  0.51804121     0.30300
C946        C  0.87514066  0.39543690  0.53789672    -0.36000
C947        C  0.90302305  0.41312760  0.51971955     0.16300
C948        C  0.91419551  0.40453156  0.48388097     0.22100
C949        C  0.89848002  0.37662571  0.46485181    -0.34100
C950        C  0.87074890  0.35870013  0.48360120     0.16200
O951        O  0.83224117  0.34815230  0.52867011    -0.26100
C952        C  0.82680686  0.32590705  0.50137061     0.06000
C953        C  0.85001644  0.33107967  0.47285500    -0.31000
O954        O  0.94022280  0.42509430  0.47093568    -0.22900
C955        C  0.94599317  0.44708931  0.49922789    -0.02900
C956        C  0.92372758  0.44058072  0.53085635    -0.17300
H957        H  0.86637005  0.40271856  0.56526399     0.20700
H958        H  0.90715424  0.36949703  0.43712338     0.19100
H959        H  0.85106158  0.31688660  0.44703792     0.19000
H960        H  0.92282400  0.45422932  0.55782357     0.14900
C961        C  0.64130551  0.00694997  0.48336659     0.30300
C962        C  0.62651754  0.01986524  0.46342425    -0.36000
C963        C  0.59833329  0.01000936  0.47986668     0.16300
C964        C  0.58582004  0.48944526  0.51439634     0.22100
C965        C  0.60037081  0.47604911  0.53369039    -0.34100
C966        C  0.62836976  0.48544492  0.51648998     0.16200
O967        O  0.66794239  0.01308687  0.47339124    -0.26100
C968        C  0.67187510  0.99482133  0.49965948     0.06000
C969        C  0.64798293  0.47696098  0.52703246    -0.31000
O970        O  0.55955375  0.48412638  0.52535507    -0.22900
C971        C  0.55501799  0.00126582  0.49709824    -0.02900
C972        C  0.57832959  0.01751426  0.46747376    -0.17300
H973        H  0.63629221  0.03640746  0.43688062     0.20700
H974        H  0.59052803  0.45943846  0.56011496     0.19100
H975        H  0.64568083  0.46058882  0.55168232     0.19000
H976        H  0.58027501  0.03273323  0.44083873     0.14900
C977        C  0.86498724  0.50656684  0.51482853     0.30300
C978        C  0.89295062  0.51960893  0.53386683    -0.36000
C979        C  0.91130058  0.51008198  0.51624329     0.16300
C980        C  0.90295718  0.98961527  0.48164408     0.22100
C981        C  0.87476477  0.97604224  0.46339705    -0.34100
C982        C  0.85619192  0.98512957  0.48168182     0.16200
O983        O  0.84453572  0.51270307  0.52529955    -0.26100
C984        C  0.82220131  0.99454124  0.49921640     0.06000
C985        C  0.82806848  0.97670293  0.47162969    -0.31000
O986        O  0.92389841  0.98455135  0.46950987    -0.22900
C987        C  0.94587497  0.00170143  0.49718168    -0.02900
C988        C  0.93904798  0.51777853  0.52744456    -0.17300
H989        H  0.89993831  0.53609010  0.56042361     0.20700
H990        H  0.86782793  0.95960609  0.43677984     0.19100
H991        H  0.81394646  0.96056933  0.44681745     0.19000
H992        H  0.95256748  0.53289089  0.55391156     0.14900
C993        C  0.63073314  0.14306294  0.98342588     0.30300
C994        C  0.60388318  0.12614412  0.96133022    -0.36000
C995        C  0.58630485  0.09818453  0.97948207     0.16300
C996        C  0.59429239  0.08798902  0.01741443     0.22100
C997        C  0.62124383  0.10461165  0.03890786    -0.34100
C998        C  0.63907381  0.13220294  0.02013834     0.16200
O999        O  0.65079550  0.16970900  0.97217526    -0.26100
C1000       C  0.67232228  0.17556219  0.00155246     0.06000
C1001       C  0.66632748  0.15303010  0.03195280    -0.31000
O1002       O  0.57422173  0.06175563  0.02978328    -0.22900
C1003       C  0.55318470  0.05453944  0.99895653    -0.02900
C1004       C  0.55966511  0.07637077  0.96640920    -0.17300
H1005       H  0.59725570  0.13413214  0.93197284     0.20700
H1006       H  0.62789596  0.09651841  0.06810204     0.19100
H1007       H  0.68004767  0.15225912  0.05897634     0.19000
H1008       H  0.54642063  0.07632720  0.93789961     0.14900
C1009       C  0.85743472  0.36545501  0.02204649     0.30300
C1010       C  0.87412448  0.39252024  0.04353526    -0.36000
C1011       C  0.90216676  0.41009111  0.02558075     0.16300
C1012       C  0.91269176  0.40190124  0.98832921     0.22100
C1013       C  0.89632354  0.37463721  0.96757782    -0.34100
C1014       C  0.86859727  0.35680521  0.98619053     0.16200
O1015       O  0.83050893  0.34571797  0.03258760    -0.26100
C1016       C  0.82468993  0.32400347  0.00371497     0.06000
C1017       C  0.84760833  0.32957822  0.97431204    -0.31000
O1018       O  0.93872561  0.42229919  0.97537366    -0.22900
C1019       C  0.94548522  0.44371533  0.00529356    -0.02900
C1020       C  0.92354764  0.43715650  0.03770886    -0.17300
H1021       H  0.86578797  0.39944448  0.07203558     0.20700
H1022       H  0.90457557  0.36788419  0.93872932     0.19100
H1023       H  0.84839100  0.31578402  0.94747554     0.19000
H1024       H  0.92309677  0.45077410  0.06515393     0.14900
C1025       C  0.58714845  0.49236772  0.98024993     0.30300
C1026       C  0.60421106  0.48353353  0.95572791    -0.36000
C1027       C  0.62992182  0.48869193  0.97760544     0.16300
C1028       C  0.63846896  0.00207041  0.02024860     0.22100
C1029       C  0.62113758  0.01033972  0.04512091    -0.34100
C1030       C  0.59527986  0.00478739  0.02356604     0.16200
O1031       O  0.56221612  0.48958592  0.96657334    -0.26100
C1032       C  0.55440443  0.00052120  0.00153716     0.06000
C1033       C  0.57381101  0.00958922  0.03840730    -0.31000
O1034       O  0.66377575  0.00572696  0.03352513    -0.22900
C1035       C  0.67124546  0.99402107  0.99936153    -0.02900
C1036       C  0.65101048  0.48290954  0.96375659    -0.17300
H1037       H  0.59787653  0.47333629  0.92203300     0.20700
H1038       H  0.62740443  0.02045057  0.07888967     0.19100
H1039       H  0.57208555  0.01806772  0.07161752     0.19000
H1040       H  0.65211610  0.47278337  0.93188150     0.14900
C1041       C  0.91116506  0.00707106  0.01482231     0.30300
C1042       C  0.89504112  0.01880438  0.03389938    -0.36000
C1043       C  0.86692747  0.00788993  0.01635051     0.16300
C1044       C  0.85520082  0.48640674  0.98310226     0.22100
C1045       C  0.87160317  0.47517856  0.96323343    -0.34100
C1046       C  0.89994506  0.48656486  0.98010860     0.16200
O1047       O  0.93770554  0.01376320  0.02665747    -0.26100
C1048       C  0.94382132  0.99765750  0.99869950     0.06000
C1049       C  0.92121153  0.48064239  0.96845765    -0.31000
O1050       O  0.82813684  0.47875484  0.97290467    -0.22900
C1051       C  0.82276139  0.99599298  0.99932793    -0.02900
C1052       C  0.84608842  0.01465808  0.02685211    -0.17300
H1053       H  0.90378614  0.03524795  0.06059681     0.20700
H1054       H  0.86287892  0.45870994  0.93657388     0.19100
H1055       H  0.92045508  0.46577396  0.94220449     0.19000
H1056       H  0.84727844  0.03053559  0.05148665     0.14900
C1057       C  0.99497962  0.13692698  0.47755208     0.30300
C1058       C  0.98282356  0.10930891  0.45750515    -0.36000
C1059       C  0.99278624  0.09126095  0.47488616     0.16300
C1060       C  0.51282109  0.09956215  0.51022837     0.22100
C1061       C  0.52564292  0.12748224  0.52931788    -0.34100
C1062       C  0.51610651  0.14575702  0.51131687     0.16200
O1063       O  0.98803771  0.15689130  0.46784456    -0.26100
C1064       C  0.50538135  0.17898983  0.49501355     0.06000
C1065       C  0.52351689  0.17345271  0.52252138    -0.31000
O1066       O  0.51789602  0.07871113  0.52273491    -0.22900
C1067       C  0.50127296  0.05683393  0.49453063    -0.02900
C1068       C  0.98550968  0.06366530  0.46348752    -0.17300
H1069       H  0.96649994  0.10226979  0.43063722     0.20700
H1070       H  0.54168140  0.13435180  0.55661024     0.19100
H1071       H  0.53908446  0.18742680  0.54813895     0.19000
H1072       H  0.97058003  0.05011445  0.43684397     0.14900
C1073       C  0.50821294  0.36774263  0.47963452     0.30300
C1074       C  0.51953437  0.39508149  0.45876422    -0.36000
C1075       C  0.50926231  0.41283583  0.47619468     0.16300
C1076       C  0.98964860  0.40455729  0.51228656     0.22100
C1077       C  0.97773497  0.37690297  0.53241360    -0.34100
C1078       C  0.98761646  0.35889547  0.51439732     0.16200
O1079       O  0.51540474  0.34801327  0.46959739    -0.26100
C1080       C  0.49880808  0.32603014  0.49764608     0.06000
C1081       C  0.98088256  0.33141211  0.52604648    -0.31000
O1082       O  0.98410472  0.42517602  0.52439761    -0.22900
C1083       C  0.50013387  0.44687393  0.49531731    -0.02900
C1084       C  0.51582832  0.44011114  0.46402407    -0.17300
H1085       H  0.53544210  0.40212057  0.43113923     0.20700
H1086       H  0.96205310  0.37000823  0.56036653     0.19100
H1087       H  0.96574785  0.31741385  0.55223851     0.19000
H1088       H  0.53030861  0.45353650  0.43670931     0.14900
C1089       C  0.99218068  0.24542218  0.79051297     0.30300
C1090       C  0.97481405  0.23514727  0.75077865    -0.36000
C1091       C  0.98942966  0.24402707  0.70823286     0.16300
C1092       C  0.51910940  0.26189737  0.70484405     0.22100
C1093       C  0.53652504  0.27219186  0.74467704    -0.34100
C1094       C  0.52189036  0.26318602  0.78733574     0.16200
O1095       O  0.98298341  0.23969269  0.83375659    -0.26100
C1096       C  0.50709584  0.25384932  0.85871186     0.06000
C1097       C  0.53199919  0.26886726  0.83173405    -0.31000
O1098       O  0.52812382  0.26741355  0.66137862    -0.22900
C1099       C  0.50386371  0.25281477  0.63677762    -0.02900
C1100       C  0.97916660  0.23788755  0.66411080    -0.17300
H1101       H  0.95152437  0.22113076  0.75289428     0.20700
H1102       H  0.55982295  0.28614591  0.74256342     0.19100
H1103       H  0.55422264  0.28205641  0.84320192     0.19000
H1104       H  0.95689017  0.22448139  0.65301048     0.14900
C1105       C  0.98817875  0.24536197  0.20505416     0.30300
C1106       C  0.97071319  0.23677765  0.24500928    -0.36000
C1107       C  0.98552441  0.24481394  0.28748660     0.16300
C1108       C  0.51542928  0.26021376  0.29039879     0.22100
C1109       C  0.53285043  0.26888903  0.25053037    -0.36500
C1110       C  0.51806962  0.26083417  0.20816143     0.16200
O1111       O  0.97903482  0.24004198  0.16171886    -0.26100
C1112       C  0.50343007  0.25225078  0.13693244     0.06000
C1113       C  0.52834651  0.26550667  0.16398862    -0.31000
O1114       O  0.52476206  0.26501973  0.33354774    -0.22900
C1115       C  0.50054984  0.25261118  0.35867645    -0.02900
C1116       C  0.97544164  0.23974019  0.33193605    -0.17300
H1117       H  0.94726334  0.22457071  0.24312044     0.20700
H1118       H  0.55630704  0.28090885  0.25242570     0.19100
H1119       H  0.55075986  0.27692012  0.15268111     0.19000
H1120       H  0.95310518  0.22811542  0.34358849     0.14900
C1121       C  0.99224316  0.13382910  0.98346732     0.30300
C1122       C  0.97952850  0.10599147  0.96407676    -0.36000
C1123       C  0.98912435  0.08770299  0.98177726     0.16300
C1124       C  0.50931392  0.09595109  0.01686575     0.22100
C1125       C  0.52249498  0.12399391  0.03560394    -0.34100
C1126       C  0.51338375  0.14253125  0.01718246     0.16200
O1127       O  0.98630891  0.15434735  0.97242677    -0.26100
C1128       C  0.00433724  0.17666324  0.99866517     0.06000
C1129       C  0.52183555  0.17067687  0.02699194    -0.31000
O1130       O  0.51471242  0.07518235  0.02864424    -0.22900
C1131       C  0.49800521  0.05335393  0.00038898    -0.02900
C1132       C  0.98195681  0.06020063  0.96995606    -0.17300
H1133       H  0.96336884  0.09911154  0.93696931     0.20700
H1134       H  0.53881858  0.13091458  0.06244721     0.19100
H1135       H  0.53789165  0.18480043  0.05190862     0.19000
H1136       H  0.96732900  0.04693513  0.94278902     0.14900
C1137       C  0.99473260  0.40520643  0.98313106     0.30300
C1138       C  0.98509136  0.37861697  0.96075958    -0.36000
C1139       C  0.99485018  0.36074323  0.97947940     0.16300
C1140       C  0.51340881  0.36873869  0.01696965     0.22100
C1141       C  0.52260182  0.39515962  0.03993518    -0.34100
C1142       C  0.51225055  0.41275747  0.02180331     0.16200
O1143       O  0.98834584  0.42521785  0.97121131    -0.26100
C1144       C  0.50123958  0.44564627  0.00326473     0.06000
C1145       C  0.51640137  0.43897198  0.03581185    -0.31000
O1146       O  0.52021715  0.34881444  0.02800252    -0.22900
C1147       C  0.00536243  0.32768325  0.99767599    -0.02900
C1148       C  0.98906959  0.33378929  0.96690502    -0.17300
H1149       H  0.97083086  0.37224546  0.93100541     0.20700
H1150       H  0.53666635  0.40146236  0.06992284     0.19100
H1151       H  0.52879400  0.45167179  0.06527162     0.19000
H1152       H  0.97518508  0.32036215  0.93915933     0.14900
O1153       O  0.98057164  0.74048372  0.06289314    -0.71200
O1154       O  0.98272467  0.74106085  0.93107574    -0.71400
O1155       O  0.98134291  0.70495008  0.99693752    -0.71300
O1156       O  0.98184890  0.77645633  0.99594582    -0.71300
O1157       O  0.52897885  0.79989157  0.99980317    -0.71300
O1158       O  0.52851206  0.72821537  0.99901144    -0.71300
O1159       O  0.52988445  0.76498560  0.93290858    -0.71200
O1160       O  0.52773049  0.76336755  0.06451906    -0.71400
V1161       V  0.98254249  0.74118703  0.99686772     1.35200
V1162       V  0.52786550  0.76363274  0.99887360     1.35200
C1163       C  0.50385412  0.75193259  0.08606046     0.78000
C1164       C  0.50664489  0.75331001  0.90962239     0.78100
C1165       C  0.00480608  0.70442867  0.99815979     0.77900
C1166       C  0.00543689  0.80025629  0.99789146     0.77900
O1167       O  0.52483416  0.76300236  0.43101995    -0.71200
O1168       O  0.52650084  0.76721304  0.56271108    -0.71400
O1169       O  0.52733720  0.73026773  0.50032129    -0.71300
O1170       O  0.52391933  0.79980646  0.49310120    -0.71300
O1171       O  0.97720302  0.77485309  0.50342916    -0.71300
O1172       O  0.98039289  0.70535710  0.49334064    -0.71300
O1173       O  0.97981147  0.73810901  0.56412715    -0.71200
O1174       O  0.97775255  0.74204883  0.43277736    -0.71400
V1175       V  0.52482581  0.76463031  0.49684096     1.35200
V1176       V  0.97963440  0.74053454  0.49844074     1.35200
C1177       C  0.50100169  0.75253614  0.40952803     0.78000
C1178       C  0.50340968  0.75271277  0.58582612     0.78100
C1179       C  0.50439156  0.70598318  0.49637718     0.77900
C1180       C  0.49999597  0.79914135  0.49825997     0.77900
C1181       C  0.52549268  0.52629433  0.00105011     0.02800
C1182       C  0.52624195  0.50005917  0.00254472     0.02800
C1183       C  0.50009267  0.97303084  0.00239788     0.02800
C1184       C  0.97298648  0.97214457  0.00181994     0.02800
C1185       C  0.97217176  0.49842754  0.00001644     0.02800
C1186       C  0.49844079  0.52553380  0.00019039     0.02800
C1187       C  0.97390869  0.97520126  0.49751526     0.02800
C1188       C  0.50048682  0.97508346  0.49634815     0.02800
C1189       C  0.52724790  0.50169338  0.49663577     0.02800
C1190       C  0.52737249  0.52844584  0.49718126     0.02800
C1191       C  0.50076804  0.52856643  0.49594490     0.02800
C1192       C  0.97400097  0.50192521  0.49685114     0.02800
O1193       O  0.73540648  0.97096482  0.93339524    -0.71200
O1194       O  0.73513133  0.97128163  0.06510579    -0.71400
O1195       O  0.69930297  0.97067062  0.99835171    -0.71300
O1196       O  0.77127481  0.97162917  0.99897476    -0.71300
O1197       O  0.79426689  0.51874476  0.99859332    -0.71300
O1198       O  0.72248443  0.51779259  0.00007319    -0.71300
O1199       O  0.75891213  0.51839103  0.06465196    -0.71200
O1200       O  0.75784911  0.51805736  0.93289475    -0.71400
V1201       V  0.73572201  0.97204362  0.99907886     1.35200
V1202       V  0.75791648  0.51732069  0.99892405     1.35200
C1203       C  0.74653978  0.49442048  0.91077773     0.78000
C1204       C  0.74714641  0.49490292  0.08724028     0.78100
C1205       C  0.69875684  0.49411480  0.99918227     0.77900
C1206       C  0.79494807  0.49538182  0.99887838     0.77900
O1207       O  0.76045945  0.51731067  0.43278257    -0.71200
O1208       O  0.75680609  0.51829013  0.56428823    -0.71400
O1209       O  0.79422667  0.51778540  0.50282452    -0.71300
O1210       O  0.72303014  0.51778444  0.49447410    -0.71300
O1211       O  0.69951066  0.97101797  0.50432209    -0.71300
O1212       O  0.77076555  0.97090477  0.49513851    -0.71300
O1213       O  0.73757675  0.97139525  0.56544863    -0.71200
O1214       O  0.73266733  0.97046371  0.43393248    -0.71400
V1215       V  0.75820751  0.51695418  0.49859797     1.35200
V1216       V  0.73554286  0.97176497  0.49966960     1.35200
C1217       C  0.74646345  0.49371668  0.41095935     0.78000
C1218       C  0.74731654  0.49504199  0.58723626     0.78100
C1219       C  0.79460882  0.49435902  0.49901152     0.77900
C1220       C  0.69921173  0.49448374  0.49961362     0.77900
O1221       O  0.76049208  0.73803867  0.06741622    -0.71200
O1222       O  0.75874361  0.73701944  0.93588520    -0.71400
O1223       O  0.79577533  0.77278401  0.99964338    -0.71300
O1224       O  0.72356779  0.70254022  0.00371318    -0.71300
O1225       O  0.70087321  0.72689757  0.99836689    -0.71300
O1226       O  0.77319579  0.79719085  0.00608429    -0.71300
O1227       O  0.73874988  0.76400894  0.93625125    -0.71200
O1228       O  0.73534293  0.76002438  0.06806456    -0.71400
V1229       V  0.75922371  0.73807927  0.00164932     1.35200
V1230       V  0.73746091  0.76158967  0.00216946     1.35200
C1231       C  0.74772866  0.74869487  0.09010104     0.78000
C1232       C  0.74884783  0.75066578  0.91368550     0.78100
C1233       C  0.79675617  0.79690350  0.00320619     0.77900
C1234       C  0.69999944  0.70279405  0.00095980     0.77900
O1235       O  0.74134592  0.76697014  0.43571404    -0.71200
O1236       O  0.73640834  0.76327384  0.56707148    -0.71400
O1237       O  0.77541425  0.79981056  0.50565905    -0.71300
O1238       O  0.70244494  0.73036287  0.49717243    -0.71300
O1239       O  0.72420637  0.70544532  0.50764033    -0.71300
O1240       O  0.79712030  0.77470872  0.49692285    -0.71300
O1241       O  0.76297164  0.74280254  0.56803548    -0.71200
O1242       O  0.75814543  0.73721786  0.43641902    -0.71400
V1243       V  0.73930132  0.76468247  0.50139431     1.35200
V1244       V  0.76025856  0.74049133  0.50222838     1.35200
C1245       C  0.74959314  0.75185926  0.41366780     0.78000
C1246       C  0.74953824  0.75307325  0.58995194     0.78100
C1247       C  0.79866887  0.79905827  0.50119612     0.77900
C1248       C  0.70094241  0.70609376  0.50269108     0.77900
C1249       C  0.74102431  0.75773496  0.79444391     0.30300
C1250       C  0.73159538  0.76556669  0.75435866    -0.36000
C1251       C  0.74008229  0.75911738  0.71198980     0.16300
C1252       C  0.75669149  0.74588039  0.70923452     0.22100
C1253       C  0.76598781  0.73793153  0.74927430    -0.34100
C1254       C  0.75748169  0.74434142  0.79159216     0.16200
O1255       O  0.73582669  0.76188486  0.83769781    -0.26100
C1256       C  0.74904775  0.75089313  0.86276701     0.06000
C1257       C  0.76282115  0.73964218  0.83593733    -0.31000
O1258       O  0.76228024  0.74205178  0.66608575    -0.22900
C1259       C  0.74907485  0.75296520  0.64085563    -0.02900
C1260       C  0.73487160  0.76385327  0.66752354    -0.17300
H1261       H  0.71864352  0.77602882  0.75608037     0.20700
H1262       H  0.77899687  0.72752974  0.74755209     0.19100
H1263       H  0.77508821  0.72959908  0.84749681     0.19000
H1264       H  0.72256229  0.77381514  0.65580153     0.14900
C1265       C  0.75236587  0.74024194  0.29456028     0.30300
C1266       C  0.75706409  0.72815711  0.25453021    -0.36000
C1267       C  0.75220456  0.73798205  0.21211881     0.16300
C1268       C  0.74310274  0.75809538  0.20929840     0.22100
C1269       C  0.73843424  0.77016590  0.24926151    -0.34100
C1270       C  0.74345840  0.76049453  0.29158673     0.16200
O1271       O  0.75582374  0.73446580  0.33785142    -0.26100
C1272       C  0.74903866  0.75127246  0.36277232     0.06000
C1273       C  0.74118736  0.76790948  0.33582987    -0.31000
O1274       O  0.74001098  0.76429264  0.16614889    -0.22900
C1275       C  0.74744105  0.74811483  0.14096960    -0.02900
C1276       C  0.75523922  0.73130103  0.16765877    -0.17300
H1277       H  0.76419181  0.71237607  0.25631072     0.20700
H1278       H  0.73152320  0.78611484  0.24747304     0.19100
H1279       H  0.73477165  0.78325138  0.34725346     0.19000
H1280       H  0.76217091  0.71641069  0.15594477     0.14900
C1281       C  0.74126776  0.98088391  0.70659317     0.30300
C1282       C  0.73378165  0.96381353  0.74684524    -0.36000
C1283       C  0.74004990  0.97886093  0.78897839     0.16300
C1284       C  0.75286567  0.50866061  0.79141168     0.22100
C1285       C  0.76035657  0.52573370  0.75115947    -0.34100
C1286       C  0.75400905  0.51069017  0.70901604     0.16200
O1287       O  0.73725644  0.97137139  0.66352126    -0.26100
C1288       C  0.74753763  0.49541766  0.63808921     0.06000
C1289       C  0.75826122  0.52050307  0.66451589    -0.31000
O1290       O  0.75687630  0.51817395  0.83449680    -0.22900
C1291       C  0.74638321  0.49414102  0.85989822    -0.02900
C1292       C  0.73562357  0.96904754  0.83347349    -0.17300
H1293       H  0.72373461  0.94044774  0.74541693     0.20700
H1294       H  0.77041447  0.54909900  0.75259501     0.19100
H1295       H  0.76775031  0.54269126  0.65261396     0.19000
H1296       H  0.72603838  0.94684918  0.84536941     0.14900
C1297       C  0.75519987  0.50801833  0.29160750     0.30300
C1298       C  0.76542014  0.52512649  0.25143853    -0.36000
C1299       C  0.75656232  0.51020519  0.20919421     0.16300
C1300       C  0.73899769  0.98049262  0.20660289     0.22100
C1301       C  0.72879588  0.96339187  0.24677387    -0.34100
C1302       C  0.73754271  0.97832177  0.28901708     0.16200
O1303       O  0.76069508  0.51741571  0.33474842    -0.26100
C1304       C  0.74632801  0.49341471  0.36005179     0.06000
C1305       C  0.73154338  0.96845180  0.33348506    -0.31000
O1306       O  0.73340829  0.97108635  0.16346527    -0.22900
C1307       C  0.74747553  0.49510815  0.13814279    -0.02900
C1308       C  0.76228796  0.52009126  0.16472584    -0.17300
H1309       H  0.77923605  0.54843230  0.25300927     0.20700
H1310       H  0.71496282  0.94008926  0.24520453     0.19100
H1311       H  0.71834935  0.94629128  0.34526216     0.19000
H1312       H  0.77534975  0.54226618  0.15294132     0.14900
C1313       C  0.58670986  0.59941628  0.48411117     0.30300
C1314       C  0.60205781  0.62750801  0.46550849    -0.36000
C1315       C  0.62940461  0.64581686  0.48495512     0.16300
C1316       C  0.64106656  0.63687595  0.51964441     0.22100
C1317       C  0.62536461  0.60905148  0.53910306    -0.34100
C1318       C  0.59780641  0.59095363  0.52024059     0.16200
O1319       O  0.56100702  0.57860949  0.47065105    -0.26100
C1320       C  0.55526770  0.55658663  0.49898166     0.06000
C1321       C  0.57732609  0.56326020  0.53101071    -0.31000
O1322       O  0.66769953  0.65691017  0.53064813    -0.22900
C1323       C  0.67290360  0.67914889  0.50334208    -0.02900
C1324       C  0.64979561  0.67364384  0.47448469    -0.17300
H1325       H  0.59338470  0.63450754  0.43758777     0.20700
H1326       H  0.63413950  0.60191505  0.56667352     0.19100
H1327       H  0.57817816  0.54960496  0.55807974     0.19000
H1328       H  0.64869524  0.68769259  0.44839053     0.14900
C1329       C  0.85908448  0.86786395  0.51798065     0.30300
C1330       C  0.87510761  0.89546215  0.53782614    -0.36000
C1331       C  0.90299947  0.91314112  0.51968262     0.16300
C1332       C  0.91418564  0.90453711  0.48387517     0.22100
C1333       C  0.89847500  0.87662883  0.46485386    -0.34100
C1334       C  0.87073462  0.85871205  0.48357784     0.16200
O1335       O  0.83221319  0.84818000  0.52860278    -0.26100
C1336       C  0.82679046  0.82592516  0.50133804     0.06000
C1337       C  0.85000775  0.83108695  0.47284984    -0.31000
O1338       O  0.94022226  0.92509370  0.47095858    -0.22900
C1339       C  0.94598379  0.94708974  0.49924344    -0.02900
C1340       C  0.92370442  0.94058748  0.53083828    -0.17300
H1341       H  0.86632815  0.90275116  0.56517004     0.20700
H1342       H  0.90716108  0.86949045  0.43715735     0.19100
H1343       H  0.85106328  0.81688148  0.44706902     0.19000
H1344       H  0.92279105  0.95423616  0.55779563     0.14900
C1345       C  0.64134118  0.50700397  0.48341632     0.30300
C1346       C  0.62654943  0.51991160  0.46346268    -0.36000
C1347       C  0.59836090  0.51004634  0.47989138     0.16300
C1348       C  0.58579125  0.98940463  0.51436650     0.22100
C1349       C  0.60033462  0.97599526  0.53363977    -0.34100
C1350       C  0.62833149  0.98538721  0.51643399     0.16200
O1351       O  0.66797280  0.51313193  0.47342303    -0.26100
C1352       C  0.67190389  0.49486258  0.49968323     0.06000
C1353       C  0.64794833  0.97691047  0.52699081    -0.31000
O1354       O  0.55953509  0.98410370  0.52535447    -0.22900
C1355       C  0.55503008  0.50127344  0.49707438    -0.02900
C1356       C  0.57834688  0.51752916  0.46746276    -0.17300
H1357       H  0.63631948  0.53644551  0.43690849     0.20700
H1358       H  0.59049247  0.95938604  0.56006647     0.19100
H1359       H  0.64564771  0.96054283  0.55164825     0.19000
H1360       H  0.58028921  0.53273883  0.44081535     0.14900
C1361       C  0.86496939  0.00654500  0.51488922     0.30300
C1362       C  0.89292629  0.01957504  0.53395159    -0.36000
C1363       C  0.91128370  0.01006172  0.51631105     0.16300
C1364       C  0.90296345  0.48961497  0.48160760     0.22100
C1365       C  0.87476491  0.47603180  0.46338234    -0.34100
C1366       C  0.85619774  0.48512977  0.48165675     0.16200
O1367       O  0.84451586  0.01267861  0.52535974    -0.26100
C1368       C  0.82220953  0.49454481  0.49919559     0.06000
C1369       C  0.82806788  0.47669135  0.47163134    -0.31000
O1370       O  0.92389957  0.48453950  0.46948769    -0.22900
C1371       C  0.94588328  0.50170310  0.49713843    -0.02900
C1372       C  0.93903141  0.01775850  0.52751422    -0.17300
H1373       H  0.89990551  0.03604116  0.56053189     0.20700
H1374       H  0.86781795  0.45957706  0.43679395     0.19100
H1375       H  0.81393584  0.46053986  0.44685136     0.19000
H1376       H  0.95254640  0.03285931  0.55399699     0.14900
C1377       C  0.63071758  0.64307067  0.98341492     0.30300
C1378       C  0.60386890  0.62614579  0.96132180    -0.36000
C1379       C  0.58629233  0.59819114  0.97948968     0.16300
C1380       C  0.59428089  0.58800504  0.01743292     0.22100
C1381       C  0.62123335  0.60463187  0.03892036    -0.34100
C1382       C  0.63906045  0.63221930  0.02013692     0.16200
O1383       O  0.65077698  0.66971515  0.97215280    -0.26100
C1384       C  0.67230397  0.67557503  0.00153201     0.06000
C1385       C  0.66631238  0.65305028  0.03194605    -0.31000
O1386       O  0.57420980  0.56177569  0.02981691    -0.22900
C1387       C  0.55317334  0.55455229  0.99898657    -0.02900
C1388       C  0.55965256  0.57637551  0.96642549    -0.17300
H1389       H  0.59724017  0.63412650  0.93195625     0.20700
H1390       H  0.62788690  0.59654596  0.06812182     0.19100
H1391       H  0.68003456  0.65228549  0.05897103     0.19000
H1392       H  0.54640776  0.57632484  0.93790964     0.14900
C1393       C  0.85744214  0.86543297  0.02206948     0.30300
C1394       C  0.87413701  0.89249651  0.04356240    -0.36000
C1395       C  0.90216732  0.91008000  0.02556958     0.16300
C1396       C  0.91267536  0.90190335  0.98827900     0.22100
C1397       C  0.89630204  0.87464143  0.96752175    -0.34100
C1398       C  0.86858962  0.85679648  0.98617362     0.16200
O1399       O  0.83052233  0.84568921  0.03263262    -0.26100
C1400       C  0.82469328  0.82398394  0.00373273     0.06000
C1401       C  0.84759928  0.82957024  0.97429402    -0.31000
O1402       O  0.93870372  0.92230622  0.97530699    -0.22900
C1403       C  0.94547828  0.94371142  0.00525717    -0.02900
C1404       C  0.92355323  0.93714304  0.03770146    -0.17300
H1405       H  0.86581350  0.89940953  0.07209513     0.20700
H1406       H  0.90454089  0.86789830  0.93864360     0.19100
H1407       H  0.84836949  0.81578693  0.94742479     0.19000
H1408       H  0.92311700  0.95075082  0.06517842     0.14900
C1409       C  0.58714773  0.99235278  0.98022215     0.30300
C1410       C  0.60422266  0.98354018  0.95568308    -0.36000
C1411       C  0.62992834  0.98868873  0.97756875     0.16300
C1412       C  0.63848343  0.50210947  0.02025582     0.22100
C1413       C  0.62116389  0.51040069  0.04511316    -0.34100
C1414       C  0.59529624  0.50483083  0.02357258     0.16200
O1415       O  0.56222245  0.98958452  0.96653581    -0.26100
C1416       C  0.55440668  0.50053913  0.00156172     0.06000
C1417       C  0.57382643  0.50963074  0.03841533    -0.31000
O1418       O  0.66379305  0.50576882  0.03352427    -0.22900
C1419       C  0.67124064  0.49402588  0.99938750    -0.02900
C1420       C  0.65103184  0.98293115  0.96370355    -0.17300
H1421       H  0.59790355  0.97337108  0.92196619     0.20700
H1422       H  0.62744355  0.52053491  0.07886435     0.19100
H1423       H  0.57210833  0.51812123  0.07161912     0.19000
H1424       H  0.65215646  0.97283627  0.93180484     0.14900
C1425       C  0.91114855  0.50705569  0.01484912     0.30300
C1426       C  0.89502041  0.51878273  0.03393350    -0.36000
C1427       C  0.86690091  0.50785520  0.01640163     0.16300
C1428       C  0.85522930  0.98645045  0.98303643     0.22100
C1429       C  0.87162924  0.97521842  0.96317040    -0.34100
C1430       C  0.89996404  0.98658799  0.98006968     0.16200
O1431       O  0.93769556  0.51376143  0.02666576    -0.26100
C1432       C  0.94381339  0.49765710  0.99870765     0.06000
C1433       C  0.92122456  0.98065403  0.96843499    -0.31000
O1434       O  0.82816353  0.97879745  0.97284740    -0.22900
C1435       C  0.82273767  0.49596144  0.99936079    -0.02900
C1436       C  0.84606365  0.51462966  0.02688547    -0.17300
H1437       H  0.90376909  0.53523595  0.06061557     0.20700
H1438       H  0.86290587  0.95875338  0.93650402     0.19100
H1439       H  0.92046969  0.96578930  0.94217488     0.19000
H1440       H  0.84725752  0.53052006  0.05149633     0.14900
C1441       C  0.99499738  0.63694021  0.47759698     0.30300
C1442       C  0.98284884  0.60932892  0.45752820    -0.36000
C1443       C  0.99280404  0.59127412  0.47490463     0.16300
C1444       C  0.51282380  0.59956061  0.51026733     0.22100
C1445       C  0.52563246  0.62747276  0.52939232    -0.34100
C1446       C  0.51610595  0.64575720  0.51139016     0.16200
O1447       O  0.98807077  0.65691295  0.46786932    -0.26100
C1448       C  0.50540544  0.67900672  0.49505221     0.06000
C1449       C  0.52351975  0.67345595  0.52259470    -0.31000
O1450       O  0.51790096  0.57870604  0.52274862    -0.22900
C1451       C  0.50128987  0.55684124  0.49451333    -0.02900
C1452       C  0.98553722  0.56368576  0.46347074    -0.17300
H1453       H  0.96654160  0.60230245  0.43063675     0.20700
H1454       H  0.54166051  0.63433230  0.55670094     0.19100
H1455       H  0.53907815  0.68742426  0.54822754     0.19000
H1456       H  0.97061849  0.55014639  0.43680654     0.14900
C1457       C  0.50820239  0.86774492  0.47963681     0.30300
C1458       C  0.51952605  0.89508668  0.45877871    -0.36000
C1459       C  0.50924707  0.91283476  0.47620790     0.16300
C1460       C  0.98962532  0.90454844  0.51228929     0.22100
C1461       C  0.97770632  0.87688939  0.53240018    -0.34100
C1462       C  0.98759542  0.85888807  0.51438460     0.16200
O1463       O  0.51540326  0.84802215  0.46960358    -0.26100
C1464       C  0.49880202  0.82603337  0.49763884     0.06000
C1465       C  0.98086417  0.83140479  0.52602681    -0.31000
O1466       O  0.98408311  0.92516653  0.52441091    -0.22900
C1467       C  0.50012029  0.94687074  0.49534492    -0.02900
C1468       C  0.51581638  0.94011197  0.46404975    -0.17300
H1469       H  0.53544353  0.90213398  0.43116551     0.20700
H1470       H  0.96201833  0.86998820  0.56034333     0.19100
H1471       H  0.96572388  0.81740022  0.55220741     0.19000
H1472       H  0.53030282  0.95354254  0.43674407     0.14900
C1473       C  0.99217104  0.74541061  0.79050539     0.30300
C1474       C  0.97480340  0.73515736  0.75076717    -0.36000
C1475       C  0.98942117  0.74404769  0.70822281     0.16300
C1476       C  0.51910271  0.76190766  0.70484030     0.22100
C1477       C  0.53651767  0.77218132  0.74467544    -0.34100
C1478       C  0.52188215  0.76316456  0.78733102     0.16200
O1479       O  0.98297354  0.73967779  0.83374972    -0.26100
C1480       C  0.50708766  0.75382495  0.85870668     0.06000
C1481       C  0.53199168  0.76883456  0.83172893    -0.31000
O1482       O  0.52812210  0.76742790  0.66137810    -0.22900
C1483       C  0.50386392  0.75284098  0.63677063    -0.02900
C1484       C  0.97916184  0.73792015  0.66409700    -0.17300
H1485       H  0.95151316  0.72114923  0.75287858     0.20700
H1486       H  0.55981700  0.78612692  0.74256544     0.19100
H1487       H  0.55421628  0.78202008  0.84319720     0.19000
H1488       H  0.95688656  0.72452000  0.65299017     0.14900
C1489       C  0.98815843  0.74535606  0.20505306     0.30300
C1490       C  0.97069615  0.73677602  0.24501306    -0.36000
C1491       C  0.98551221  0.74481948  0.28748732     0.16300
C1492       C  0.51541768  0.76021863  0.29039047     0.22100
C1493       C  0.53283395  0.76888725  0.25051861    -0.36500
C1494       C  0.51804927  0.76082881  0.20815505     0.16200
O1495       O  0.97901249  0.74003708  0.16171811    -0.26100
C1496       C  0.50340737  0.75224824  0.13692977     0.06000
C1497       C  0.52832409  0.76550356  0.16398286    -0.31000
O1498       O  0.52475700  0.76503032  0.33353527    -0.22900
C1499       C  0.50054909  0.75262599  0.35867263    -0.02900
C1500       C  0.97543616  0.73975380  0.33194098    -0.17300
H1501       H  0.94724659  0.72456997  0.24313018     0.20700
H1502       H  0.55629128  0.78090743  0.25240745     0.19100
H1503       H  0.55073718  0.77691997  0.15267330     0.19000
H1504       H  0.95310058  0.72813025  0.34360217     0.14900
C1505       C  0.99223951  0.63383991  0.98347627     0.30300
C1506       C  0.97951494  0.60599864  0.96409738    -0.36000
C1507       C  0.98910324  0.58770579  0.98180634     0.16300
C1508       C  0.50929191  0.59595260  0.01689692     0.22100
C1509       C  0.52247901  0.62399723  0.03562839    -0.34100
C1510       C  0.51337934  0.64254007  0.01719306     0.16200
O1511       O  0.98631594  0.65436343  0.97242388    -0.26100
C1512       C  0.00435037  0.67667998  0.99865518     0.06000
C1513       C  0.52184321  0.67069022  0.02698831    -0.31000
O1514       O  0.51469246  0.57518465  0.02867097    -0.22900
C1515       C  0.49798936  0.55335788  0.00041052    -0.02900
C1516       C  0.98193898  0.56020463  0.96997997    -0.17300
H1517       H  0.96335718  0.59912101  0.93698535     0.20700
H1518       H  0.53880368  0.63091720  0.06247252     0.19100
H1519       H  0.53789902  0.68481241  0.05190565     0.19000
H1520       H  0.96731507  0.54694145  0.94280709     0.14900
C1521       C  0.99470247  0.90518686  0.98313399     0.30300
C1522       C  0.98503771  0.87858597  0.96079137    -0.36000
C1523       C  0.99480477  0.86071827  0.97950357     0.16300
C1524       C  0.51339468  0.86873087  0.01695502     0.22100
C1525       C  0.52261181  0.89516362  0.03989204    -0.34100
C1526       C  0.51224963  0.91275381  0.02177275     0.16200
O1527       O  0.98831030  0.92519441  0.97122033    -0.26100
C1528       C  0.50122974  0.94563534  0.00324621     0.06000
C1529       C  0.51641112  0.93897223  0.03577045    -0.31000
O1530       O  0.52020803  0.84881032  0.02798063    -0.22900
C1531       C  0.00532465  0.82766549  0.99769056    -0.02900
C1532       C  0.98900772  0.83375708  0.96695092    -0.17300
H1533       H  0.97075422  0.87220173  0.93106611     0.20700
H1534       H  0.53670113  0.90148015  0.06985232     0.19100
H1535       H  0.52882201  0.95168050  0.06521135     0.19000
H1536       H  0.97510169  0.82031811  0.93923319     0.14900
loop_ 
_geom_bond_atom_site_label_1 
_geom_bond_atom_site_label_2 
_geom_bond_distance 
_geom_bond_site_symmetry_2 
_ccdc_geom_bond_type 
O1            V9   1.905   1_554  S
O1          C779   1.265       .  A
O2            V9   1.897       .  S
O2          C780   1.263       .  A
O3            V9   1.899       .  S
O3           C13   1.263       .  A
O4            V9   1.897       .  S
O4           C14   1.263       .  A
O5           V10   1.903       .  S
O5          C782   1.263       .  A
O6           V10   1.904       .  S
O6          C781   1.265       .  A
O7           V10   1.904       .  S
O7           C12   1.265       .  A
O8           V10   1.892   1_554  S
O8           C11   1.263       .  A
V9          V778   2.089       .  T
V10         V777   2.089   1_455  T
C11         O769   1.265   1_455  A
C11         C344   1.467       .  S
C12         O770   1.263   1_455  A
C12         C328   1.468       .  S
C13         O774   1.265       .  A
C13         C360   1.466       .  S
C14         O773   1.263       .  A
C14         C379   1.463       .  S
O15          V23   1.899       .  S
O15          C25   1.264       .  A
O16          V23   1.903       .  S
O16          C26   1.264       .  A
O17          V23   1.903       .  S
O17          C27   1.264       .  A
O18          V23   1.901       .  S
O18          C28   1.264   1_455  A
O19          V24   1.902       .  S
O19         C796   1.264       .  A
O20          V24   1.900       .  S
O20         C795   1.263       .  A
O21          V24   1.898       .  S
O21         C794   1.265       .  A
O22          V24   1.899       .  S
O22         C793   1.264       .  A
V23         V792   2.084   1_455  T
V24         V791   2.084       .  T
C25         O790   1.264   1_455  A
C25         C347   1.466       .  S
C26         O789   1.265   1_455  A
C26         C331   1.469       .  S
C27         O788   1.263   1_455  A
C27         C296   1.465       .  S
C28         O787   1.264       .  A
C28         C312   1.465       .  S
C29         C235   1.491   1_554  S
C29          C30   1.418       .  A
C29          C34   1.419   1_455  A
C30         C264   1.486       .  S
C30         C415   1.416   1_545  A
C31         C376   1.491       .  S
C31         C414   1.416       .  A
C31         C800   1.419   1_455  A
C32         C251   1.493       .  S
C32         C799   1.419       .  A
C32         C417   1.423       .  A
C33         C280   1.489   1_554  S
C33         C416   1.423       .  A
C33         C802   1.422   1_565  A
C34         C363   1.494       .  S
C34         C801   1.422   1_545  A
C35         C187   1.493       .  S
C35         C804   1.417       .  A
C35         C424   1.421       .  A
C36         C315   1.493       .  S
C36         C803   1.417   1_455  A
C36         C421   1.421       .  A
C37         C203   1.489       .  S
C37          C38   1.422       .  A
C37         C420   1.421   1_545  A
C38         C168   1.493       .  S
C38          C39   1.419       .  A
C39         C299   1.493       .  S
C39         C808   1.422   1_455  A
C40         C219   1.490       .  S
C40         C419   1.421   1_545  A
C40         C807   1.422       .  A
O41          V49   1.894       .  S
O41         C435   1.263       .  A
O42          V49   1.904   1_554  S
O42         C436   1.265       .  A
O43          V49   1.902       .  S
O43         C437   1.264       .  A
O44          V49   1.902       .  S
O44         C438   1.264       .  A
O45          V50   1.897       .  S
O45          C54   1.263   1_545  A
O46          V50   1.898   1_554  S
O46          C53   1.262   1_544  A
O47          V50   1.896   1_554  S
O47          C52   1.263   1_545  A
O48          V50   1.904       .  S
O48          C51   1.265   1_545  A
V49         V434   2.090       .  T
V50         V433   2.090   1_545  T
C51         O425   1.263       .  A
C51         C139   1.467       .  S
C52         O426   1.265       .  A
C52         C155   1.468       .  S
C53         O427   1.264       .  A
C53         C267   1.461       .  S
C54         O428   1.264       .  A
C54         C283   1.463       .  S
O55          V63   1.900       .  S
O55          C65   1.264   1_545  A
O56          V63   1.898       .  S
O56          C66   1.264   1_545  A
O57          V63   1.898       .  S
O57          C67   1.263   1_545  A
O58          V63   1.898       .  S
O58          C68   1.263   1_545  A
O59          V64   1.902       .  S
O59         C452   1.264       .  A
O60          V64   1.901       .  S
O60         C451   1.264       .  A
O61          V64   1.900       .  S
O61         C450   1.264       .  A
O62          V64   1.900       .  S
O62         C449   1.265       .  A
V63         V448   2.084   1_545  T
V64         V447   2.084       .  T
C65         O446   1.265       .  A
C65         C152   1.468       .  S
C66         O445   1.264       .  A
C66         C136   1.466       .  S
C67         O444   1.264       .  A
C67         C216   1.463       .  S
C68         O443   1.264       .  A
C68         C200   1.463       .  S
O69          V77   1.897       .  S
O69          C79   1.263       .  A
O70          V77   1.897   1_556  S
O70          C80   1.264       .  A
O71          V77   1.900   1_556  S
O71          C81   1.264   1_556  A
O72          V77   1.896       .  S
O72          C82   1.263       .  A
O73          V78   1.903   1_556  S
O73          C82   1.263   1_556  A
O74          V78   1.903       .  S
O74          C81   1.264       .  A
O75          V78   1.903   1_556  S
O75          C80   1.264       .  A
O76          V78   1.902       .  S
O76          C79   1.264       .  A
V77          V78   2.087       .  T
C79         C123   1.466       .  S
C80         C104   1.468       .  S
C81         C248   1.465       .  S
C82         C232   1.462       .  S
O83          V91   1.897       .  S
O83          C93   1.264       .  A
O84          V91   1.898       .  S
O84          C94   1.264       .  A
O85          V91   1.901       .  S
O85          C95   1.264       .  A
O86          V91   1.903       .  S
O86          C96   1.264       .  A
O87          V92   1.899       .  S
O87          C96   1.263       .  A
O88          V92   1.902       .  S
O88          C95   1.264       .  A
O89          V92   1.902       .  S
O89          C94   1.265       .  A
O90          V92   1.904       .  S
O90          C93   1.265       .  A
V91          V92   2.083       .  T
C93         C120   1.467       .  S
C94         C107   1.468       .  S
C95         C184   1.465       .  S
C96         C171   1.465       .  S
C97         C102   1.381       .  A
C97          C98   1.404       .  A
C97         O103   1.320       .  A
C98          C99   1.403       .  A
C98         H109   1.082       .  S
C99         C108   1.361       .  A
C99         C100   1.381       .  A
C100        C101   1.402       .  A
C100        O106   1.318       .  A
C101        C102   1.401       .  A
C101        H110   1.082       .  S
C102        C105   1.360       .  A
O103        C104   1.331       .  A
C104        C105   1.390       .  A
C105        H111   1.082       .  S
O106        C107   1.330       .  A
C107        C108   1.391       .  A
C108        H112   1.082       .  S
C113        C118   1.381       .  A
C113        C114   1.404       .  A
C113        O119   1.320       .  A
C114        C115   1.403       .  A
C114        H125   1.082       .  S
C115        C124   1.361       .  A
C115        C116   1.381       .  A
C116        C117   1.401       .  A
C116        O122   1.318       .  A
C117        C118   1.401       .  A
C117        H126   1.082       .  S
C118        C121   1.359       .  A
O119        C120   1.331       .  A
C120        C121   1.390       .  A
C121        H127   1.083       .  S
O122        C123   1.329       .  A
C123        C124   1.391       .  A
C124        H128   1.082       .  S
C129        C130   1.402       .  A
C129        C518   1.381       .  A
C129        O135   1.318       .  A
C130        C131   1.402       .  A
C130        H141   1.082       .  S
C131        C140   1.360       .  A
C131        C516   1.381       .  A
C132        C133   1.402       .  A
C132        C515   1.381   1_545  A
C132        O138   1.319       .  A
C133        C134   1.402       .  A
C133        H142   1.082       .  S
C134        C137   1.360       .  A
C134        C513   1.381   1_545  A
O135        C520   1.330       .  A
C136        C137   1.390   1_565  A
C136        O519   1.330       .  A
C137        H143   1.082       .  S
O138        C139   1.330   1_545  A
C139        C524   1.391       .  A
C140        C523   1.391       .  A
C140        H144   1.082       .  S
C145        C146   1.403       .  A
C145        C534   1.381   1_545  A
C145        O151   1.319       .  A
C146        C147   1.402       .  A
C146        H157   1.082       .  S
C147        C156   1.360       .  A
C147        C532   1.381   1_545  A
C148        C149   1.402       .  A
C148        C531   1.381       .  A
C148        O154   1.319       .  A
C149        C150   1.402       .  A
C149        H158   1.082       .  S
C150        C153   1.361       .  A
C150        C529   1.381       .  A
O151        C152   1.331   1_545  A
C152        C537   1.391       .  A
C153        C536   1.391       .  A
C153        H159   1.082       .  S
O154        C539   1.330       .  A
C155        C156   1.391   1_565  A
C155        O538   1.330       .  A
C156        H160   1.082       .  S
C161        C166   1.379       .  A
C161        C162   1.403       .  A
C161        O167   1.318       .  A
C162        C163   1.402       .  A
C162        H173   1.082       .  S
C163        C172   1.362       .  A
C163        C164   1.381       .  A
C164        C165   1.403       .  A
C164        O170   1.318       .  A
C165        C166   1.402       .  A
C165        H174   1.082       .  S
C166        C169   1.361       .  A
O167        C168   1.332       .  A
C168        C169   1.394       .  A
C169        H175   1.082       .  S
O170        C171   1.330       .  A
C171        C172   1.390       .  A
C172        H176   1.082       .  S
C177        C182   1.381       .  A
C177        C178   1.402       .  A
C177        O183   1.318       .  A
C178        C179   1.401       .  A
C178        H189   1.082       .  S
C179        C188   1.359       .  A
C179        C180   1.379       .  A
C180        C181   1.404       .  A
C180        O186   1.318       .  A
C181        C182   1.403       .  A
C181        H190   1.082       .  S
C182        C185   1.363       .  A
O183        C184   1.329       .  A
C184        C185   1.390       .  A
C185        H191   1.083       .  S
O186        C187   1.333       .  A
C187        C188   1.393       .  A
C188        H192   1.082       .  S
C193        C194   1.401       .  A
C193        C582   1.381   1_545  A
C193        O199   1.317       .  A
C194        C195   1.400       .  A
C194        H205   1.082       .  S
C195        C204   1.358       .  A
C195        C580   1.379   1_545  A
C196        C197   1.403       .  A
C196        C579   1.379       .  A
C196        O202   1.317       .  A
C197        C198   1.403       .  A
C197        H206   1.082       .  S
C198        C201   1.363       .  A
C198        C577   1.381       .  A
O199        C200   1.329   1_545  A
C200        C585   1.390       .  A
C201        C584   1.390       .  A
C201        H207   1.082       .  S
O202        C587   1.332       .  A
C203        C204   1.393       .  A
C203        O586   1.332   1_545  A
C204        H208   1.082       .  S
C209        C210   1.402       .  A
C209        C598   1.381       .  A
C209        O215   1.318       .  A
C210        C211   1.401       .  A
C210        H221   1.082       .  S
C211        C220   1.359       .  A
C211        C596   1.379       .  A
C212        C213   1.403       .  A
C212        C595   1.379   1_565  A
C212        O218   1.317       .  A
C213        C214   1.402       .  A
C213        H222   1.082       .  S
C214        C217   1.362       .  A
C214        C593   1.381   1_565  A
O215        C600   1.330       .  A
C216        C217   1.389       .  A
C216        O599   1.330   1_565  A
C217        H223   1.083       .  S
O218        C219   1.332   1_565  A
C219        C604   1.393       .  A
C220        C603   1.393       .  A
C220        H224   1.082       .  S
C225        C230   1.381   1_556  A
C225        C226   1.405       .  A
C225        O231   1.320       .  A
C226        C227   1.404       .  A
C226        H237   1.082       .  S
C227        C236   1.363       .  A
C227        C228   1.379   1_556  A
C228        C229   1.399       .  A
C228        O234   1.314       .  A
C229        C230   1.399       .  A
C229        H238   1.082       .  S
C230        C233   1.358       .  A
O231        C232   1.331   1_556  A
C232        C233   1.387       .  A
C233        H239   1.083       .  S
O234        C235   1.328   1_554  A
C235        C236   1.395       .  A
C236        H240   1.082       .  S
C241        C246   1.381   1_554  A
C241        C242   1.405       .  A
C241        O247   1.320       .  A
C242        C243   1.404       .  A
C242        H253   1.082       .  S
C243        C252   1.363       .  A
C243        C244   1.379   1_554  A
C244        C245   1.402       .  A
C244        O250   1.316       .  A
C245        C246   1.401       .  A
C245        H254   1.082       .  S
C246        C249   1.360       .  A
O247        C248   1.331       .  A
C248        C249   1.389   1_554  A
C249        H255   1.083       .  S
O250        C251   1.330   1_556  A
C251        C252   1.395       .  A
C252        H256   1.082       .  S
C257        C258   1.404       .  A
C257        C646   1.380   1_556  A
C257        O263   1.320       .  A
C258        C259   1.404       .  A
C258        H269   1.082       .  S
C259        C268   1.363       .  A
C259        C644   1.381   1_556  A
C260        C261   1.401       .  A
C260        C643   1.381   1_544  A
C260        O266   1.318       .  A
C261        C262   1.400       .  A
C261        H270   1.082       .  S
C262        C265   1.358       .  A
C262        C641   1.380   1_544  A
O263        C648   1.332   1_556  A
C264        C265   1.391       .  A
C264        O647   1.332   1_544  A
C265        H271   1.082       .  S
O266        C267   1.329   1_544  A
C267        C652   1.390       .  A
C268        C651   1.390       .  A
C268        H272   1.082       .  S
C273        C274   1.402       .  A
C273        C662   1.380   1_544  A
C273        O279   1.317       .  A
C274        C275   1.401       .  A
C274        H285   1.082       .  S
C275        C284   1.360       .  A
C275        C660   1.381   1_544  A
C276        C277   1.403       .  A
C276        C659   1.381   1_556  A
C276        O282   1.319       .  A
C277        C278   1.402       .  A
C277        H286   1.082       .  S
C278        C281   1.360       .  A
C278        C657   1.380   1_556  A
O279        C280   1.331   1_544  A
C280        C665   1.394       .  A
C281        C664   1.394       .  A
C281        H287   1.082       .  S
O282        C667   1.330       .  A
C283        C284   1.389   1_566  A
C283        O666   1.330       .  A
C284        H288   1.082       .  S
C289        C290   1.403       .  A
C289       C1062   1.381       .  A
C289        O295   1.318       .  A
C290        C291   1.402       .  A
C290        H301   1.082       .  S
C291        C300   1.361       .  A
C291       C1060   1.379       .  A
C292        C293   1.403       .  A
C292       C1059   1.379   1_455  A
C292        O298   1.317       .  A
C293        C294   1.402       .  A
C293        H302   1.082       .  S
C294        C297   1.362       .  A
C294       C1057   1.381   1_455  A
O295       C1064   1.330       .  A
C296        C297   1.390       .  A
C296       O1063   1.330   1_455  A
C297        H303   1.083       .  S
O298        C299   1.332       .  A
C299       C1068   1.394   1_455  A
C300       C1067   1.394       .  A
C300        H304   1.082       .  S
C305        C306   1.402       .  A
C305       C1078   1.381   1_455  A
C305        O311   1.318       .  A
C306        C307   1.401       .  A
C306        H317   1.082       .  S
C307        C316   1.359       .  A
C307       C1076   1.379   1_455  A
C308        C309   1.404       .  A
C308       C1075   1.379       .  A
C308        O314   1.319       .  A
C309        C310   1.404       .  A
C309        H318   1.082       .  S
C310        C313   1.363       .  A
C310       C1073   1.381       .  A
O311        C312   1.329   1_455  A
C312       C1081   1.391       .  A
C313       C1080   1.391       .  A
C313        H319   1.082       .  S
O314       C1083   1.333       .  A
C315        C316   1.393       .  A
C315       O1082   1.333   1_455  A
C316        H320   1.082       .  S
C321        C322   1.401       .  A
C321       C1094   1.381       .  A
C321        O327   1.317       .  A
C322        C323   1.401       .  A
C322        H333   1.082       .  S
C323        C332   1.359       .  A
C323       C1092   1.380       .  A
C324        C325   1.405       .  A
C324       C1091   1.380   1_455  A
C324        O330   1.320       .  A
C325        C326   1.404       .  A
C325        H334   1.082       .  S
C326        C329   1.363       .  A
C326       C1089   1.381   1_455  A
O327       C1096   1.330       .  A
C328        C329   1.392       .  A
C328       O1095   1.330   1_455  A
C329        H335   1.083       .  S
O330        C331   1.332       .  A
C331       C1100   1.390   1_455  A
C332       C1099   1.390       .  A
C332        H336   1.083       .  S
C337        C338   1.404       .  A
C337       C1110   1.381       .  A
C337        O343   1.320       .  A
C338        C339   1.403       .  A
C338        H349   1.082       .  S
C339        C348   1.362       .  A
C339       C1108   1.381       .  A
C340        C341   1.401       .  A
C340       C1107   1.381   1_455  A
C340        O346   1.317       .  A
C341        C342   1.400       .  A
C341        H350   1.082       .  S
C342        C345   1.358       .  A
C342       C1105   1.381   1_455  A
O343       C1112   1.331       .  A
C344        C345   1.390       .  A
C344       O1111   1.331   1_455  A
C345        H351   1.082       .  S
O346        C347   1.329       .  A
C347       C1116   1.392   1_455  A
C348       C1115   1.392       .  A
C348        H352   1.082       .  S
C353        C354   1.403       .  A
C353       C1126   1.381   1_556  A
C353        O359   1.319       .  A
C354        C355   1.402       .  A
C354        H365   1.082       .  S
C355        C364   1.360       .  A
C355       C1124   1.379   1_556  A
C356        C357   1.404       .  A
C356       C1123   1.379   1_454  A
C356        O362   1.318       .  A
C357        C358   1.403       .  A
C357        H366   1.082       .  S
C358        C361   1.363       .  A
C358       C1121   1.381   1_454  A
O359        C360   1.330       .  A
C360       C1129   1.390   1_556  A
C361       C1128   1.390   1_554  A
C361        H367   1.083       .  S
O362        C363   1.333   1_455  A
C363       C1132   1.394   1_554  A
C364       C1131   1.394   1_556  A
C364        H368   1.082       .  S
C369        C370   1.401       .  A
C369       C1142   1.379   1_556  A
C369        O375   1.316       .  A
C370        C371   1.400       .  A
C370        H381   1.082       .  S
C371        C380   1.359       .  A
C371       C1140   1.381   1_556  A
C372        C373   1.405       .  A
C372       C1139   1.381   1_454  A
C372        O378   1.320       .  A
C373        C374   1.404       .  A
C373        H382   1.082       .  S
C374        C377   1.362       .  A
C374       C1137   1.379   1_454  A
O375       C1144   1.329   1_556  A
C376        C377   1.394       .  A
C376       O1143   1.329   1_454  A
C377        H383   1.082       .  S
O378       C1147   1.331   1_554  A
C379        C380   1.388       .  A
C379       O1146   1.331   1_556  A
C380        H384   1.082       .  S
O385        V393   1.905   1_554  S
O385       C1163   1.265       .  A
O386        V393   1.897       .  S
O386       C1164   1.263       .  A
O387        V393   1.899       .  S
O387        C397   1.263       .  A
O388        V393   1.897       .  S
O388        C398   1.263       .  A
O389        V394   1.903       .  S
O389       C1166   1.263       .  A
O390        V394   1.904       .  S
O390       C1165   1.265       .  A
O391        V394   1.904       .  S
O391        C396   1.265       .  A
O392        V394   1.892   1_554  S
O392        C395   1.263       .  A
V393       V1162   2.089       .  T
V394       V1161   2.089   1_455  T
C395       O1153   1.265   1_455  A
C395        C728   1.467       .  S
C396       O1154   1.263   1_455  A
C396        C712   1.468       .  S
C397       O1158   1.265       .  A
C397        C744   1.466       .  S
C398       O1157   1.263       .  A
C398        C763   1.463       .  S
O399        V407   1.900       .  S
O399        C409   1.264       .  A
O400        V407   1.903       .  S
O400        C410   1.264       .  A
O401        V407   1.903       .  S
O401        C411   1.264       .  A
O402        V407   1.901       .  S
O402        C412   1.264   1_455  A
O403        V408   1.901       .  S
O403       C1180   1.264       .  A
O404        V408   1.900       .  S
O404       C1179   1.263       .  A
O405        V408   1.898       .  S
O405       C1178   1.265       .  A
O406        V408   1.899       .  S
O406       C1177   1.264       .  A
V407       V1176   2.084   1_455  T
V408       V1175   2.084       .  T
C409       O1174   1.264   1_455  A
C409        C731   1.466       .  S
C410       O1173   1.265   1_455  A
C410        C715   1.469       .  S
C411       O1172   1.263   1_455  A
C411        C680   1.465       .  S
C412       O1171   1.264       .  A
C412        C696   1.465       .  S
C413        C619   1.491   1_554  S
C413        C414   1.418       .  A
C413        C418   1.419   1_455  A
C414        C648   1.486       .  S
C415        C760   1.490       .  S
C415       C1184   1.419   1_455  A
C416        C635   1.493       .  S
C416       C1183   1.419       .  A
C417        C664   1.489   1_554  S
C417       C1186   1.422       .  A
C418        C747   1.494       .  S
C418       C1185   1.422       .  A
C419        C571   1.493       .  S
C419       C1188   1.417       .  A
C420        C699   1.493       .  S
C420       C1187   1.417   1_455  A
C421        C587   1.489       .  S
C421        C422   1.422       .  A
C422        C552   1.493       .  S
C422        C423   1.419       .  A
C423        C683   1.493       .  S
C423       C1192   1.422   1_455  A
C424        C603   1.490       .  S
C424       C1191   1.422       .  A
O425        V433   1.894       .  S
O426        V433   1.904   1_554  S
O427        V433   1.902       .  S
O428        V433   1.902       .  S
O429        V434   1.897       .  S
O429        C438   1.263       .  A
O430        V434   1.898   1_554  S
O430        C437   1.262   1_554  A
O431        V434   1.896   1_554  S
O431        C436   1.263       .  A
O432        V434   1.904       .  S
O432        C435   1.265       .  A
C435        C523   1.467       .  S
C436        C539   1.468       .  S
C437        C651   1.461       .  S
C438        C667   1.463       .  S
O439        V447   1.900       .  S
O439        C449   1.264       .  A
O440        V447   1.898       .  S
O440        C450   1.264       .  A
O441        V447   1.898       .  S
O441        C451   1.263       .  A
O442        V447   1.898       .  S
O442        C452   1.263       .  A
O443        V448   1.902       .  S
O444        V448   1.901       .  S
O445        V448   1.900       .  S
O446        V448   1.900       .  S
C449        C536   1.468       .  S
C450        C520   1.466       .  S
C451        C600   1.463       .  S
C452        C584   1.463       .  S
O453        V461   1.897       .  S
O453        C463   1.263       .  A
O454        V461   1.897   1_556  S
O454        C464   1.264       .  A
O455        V461   1.900   1_556  S
O455        C465   1.264   1_556  A
O456        V461   1.896       .  S
O456        C466   1.263       .  A
O457        V462   1.903   1_556  S
O457        C466   1.263   1_556  A
O458        V462   1.903       .  S
O458        C465   1.264       .  A
O459        V462   1.903   1_556  S
O459        C464   1.264       .  A
O460        V462   1.902       .  S
O460        C463   1.264       .  A
V461        V462   2.087       .  T
C463        C507   1.467       .  S
C464        C488   1.468       .  S
C465        C632   1.465       .  S
C466        C616   1.462       .  S
O467        V475   1.897       .  S
O467        C477   1.264       .  A
O468        V475   1.898       .  S
O468        C478   1.264       .  A
O469        V475   1.901       .  S
O469        C479   1.264       .  A
O470        V475   1.903       .  S
O470        C480   1.264       .  A
O471        V476   1.899       .  S
O471        C480   1.263       .  A
O472        V476   1.902       .  S
O472        C479   1.264       .  A
O473        V476   1.902       .  S
O473        C478   1.265       .  A
O474        V476   1.904       .  S
O474        C477   1.265       .  A
V475        V476   2.083       .  T
C477        C504   1.468       .  S
C478        C491   1.468       .  S
C479        C568   1.465       .  S
C480        C555   1.465       .  S
C481        C486   1.381       .  A
C481        C482   1.404       .  A
C481        O487   1.320       .  A
C482        C483   1.403       .  A
C482        H493   1.082       .  S
C483        C492   1.361       .  A
C483        C484   1.381       .  A
C484        C485   1.402       .  A
C484        O490   1.318       .  A
C485        C486   1.401       .  A
C485        H494   1.082       .  S
C486        C489   1.360       .  A
O487        C488   1.331       .  A
C488        C489   1.390       .  A
C489        H495   1.083       .  S
O490        C491   1.330       .  A
C491        C492   1.391       .  A
C492        H496   1.082       .  S
C497        C502   1.381       .  A
C497        C498   1.404       .  A
C497        O503   1.320       .  A
C498        C499   1.403       .  A
C498        H509   1.082       .  S
C499        C508   1.361       .  A
C499        C500   1.381       .  A
C500        C501   1.401       .  A
C500        O506   1.318       .  A
C501        C502   1.401       .  A
C501        H510   1.082       .  S
C502        C505   1.359       .  A
O503        C504   1.331       .  A
C504        C505   1.390       .  A
C505        H511   1.083       .  S
O506        C507   1.329       .  A
C507        C508   1.391       .  A
C508        H512   1.082       .  S
C513        C514   1.402       .  A
C513        O519   1.318       .  A
C514        C515   1.402       .  A
C514        H525   1.082       .  S
C515        C524   1.360       .  A
C516        C517   1.402       .  A
C516        O522   1.319       .  A
C517        C518   1.402       .  A
C517        H526   1.082       .  S
C518        C521   1.360       .  A
C520        C521   1.390       .  A
C521        H527   1.082       .  S
O522        C523   1.330       .  A
C524        H528   1.082       .  S
C529        C530   1.403       .  A
C529        O535   1.319       .  A
C530        C531   1.402       .  A
C530        H541   1.082       .  S
C531        C540   1.360       .  A
C532        C533   1.403       .  A
C532        O538   1.319       .  A
C533        C534   1.402       .  A
C533        H542   1.082       .  S
C534        C537   1.361       .  A
O535        C536   1.331       .  A
C537        H543   1.082       .  S
C539        C540   1.391       .  A
C540        H544   1.082       .  S
C545        C550   1.379       .  A
C545        C546   1.403       .  A
C545        O551   1.318       .  A
C546        C547   1.402       .  A
C546        H557   1.082       .  S
C547        C556   1.362       .  A
C547        C548   1.381       .  A
C548        C549   1.403       .  A
C548        O554   1.318       .  A
C549        C550   1.402       .  A
C549        H558   1.082       .  S
C550        C553   1.361       .  A
O551        C552   1.332       .  A
C552        C553   1.394       .  A
C553        H559   1.082       .  S
O554        C555   1.330       .  A
C555        C556   1.390       .  A
C556        H560   1.082       .  S
C561        C566   1.381       .  A
C561        C562   1.402       .  A
C561        O567   1.318       .  A
C562        C563   1.401       .  A
C562        H573   1.082       .  S
C563        C572   1.359       .  A
C563        C564   1.379       .  A
C564        C565   1.404       .  A
C564        O570   1.318       .  A
C565        C566   1.403       .  A
C565        H574   1.082       .  S
C566        C569   1.363       .  A
O567        C568   1.329       .  A
C568        C569   1.390       .  A
C569        H575   1.083       .  S
O570        C571   1.333       .  A
C571        C572   1.393       .  A
C572        H576   1.082       .  S
C577        C578   1.401       .  A
C577        O583   1.317       .  A
C578        C579   1.400       .  A
C578        H589   1.082       .  S
C579        C588   1.358       .  A
C580        C581   1.403       .  A
C580        O586   1.317       .  A
C581        C582   1.403       .  A
C581        H590   1.082       .  S
C582        C585   1.363       .  A
O583        C584   1.329       .  A
C585        H591   1.082       .  S
C587        C588   1.393       .  A
C588        H592   1.082       .  S
C593        C594   1.402       .  A
C593        O599   1.318       .  A
C594        C595   1.401       .  A
C594        H605   1.082       .  S
C595        C604   1.359       .  A
C596        C597   1.403       .  A
C596        O602   1.318       .  A
C597        C598   1.402       .  A
C597        H606   1.082       .  S
C598        C601   1.362       .  A
C600        C601   1.389       .  A
C601        H607   1.083       .  S
O602        C603   1.332       .  A
C604        H608   1.082       .  S
C609        C614   1.381   1_556  A
C609        C610   1.405       .  A
C609        O615   1.320       .  A
C610        C611   1.404       .  A
C610        H621   1.082       .  S
C611        C620   1.363       .  A
C611        C612   1.379   1_556  A
C612        C613   1.399       .  A
C612        O618   1.314       .  A
C613        C614   1.399       .  A
C613        H622   1.082       .  S
C614        C617   1.358       .  A
O615        C616   1.331   1_556  A
C616        C617   1.387       .  A
C617        H623   1.083       .  S
O618        C619   1.328   1_554  A
C619        C620   1.395       .  A
C620        H624   1.082       .  S
C625        C630   1.381   1_554  A
C625        C626   1.405       .  A
C625        O631   1.320       .  A
C626        C627   1.404       .  A
C626        H637   1.082       .  S
C627        C636   1.363       .  A
C627        C628   1.379   1_554  A
C628        C629   1.402       .  A
C628        O634   1.316       .  A
C629        C630   1.401       .  A
C629        H638   1.082       .  S
C630        C633   1.360       .  A
O631        C632   1.331       .  A
C632        C633   1.389   1_554  A
C633        H639   1.083       .  S
O634        C635   1.330   1_556  A
C635        C636   1.395       .  A
C636        H640   1.082       .  S
C641        C642   1.404       .  A
C641        O647   1.320       .  A
C642        C643   1.404       .  A
C642        H653   1.082       .  S
C643        C652   1.363       .  A
C644        C645   1.401       .  A
C644        O650   1.318       .  A
C645        C646   1.400       .  A
C645        H654   1.082       .  S
C646        C649   1.358       .  A
C648        C649   1.391       .  A
C649        H655   1.082       .  S
O650        C651   1.329   1_554  A
C652        H656   1.082       .  S
C657        C658   1.402       .  A
C657        O663   1.317       .  A
C658        C659   1.401       .  A
C658        H669   1.082       .  S
C659        C668   1.360       .  A
C660        C661   1.403       .  A
C660        O666   1.319       .  A
C661        C662   1.402       .  A
C661        H670   1.082       .  S
C662        C665   1.359       .  A
O663        C664   1.331   1_554  A
C665        H671   1.082       .  S
C667        C668   1.389   1_556  A
C668        H672   1.082       .  S
C673       C1446   1.381       .  A
C673        C674   1.403       .  A
C673        O679   1.318       .  A
C674        C675   1.402       .  A
C674        H685   1.082       .  S
C675        C684   1.361       .  A
C675       C1444   1.379       .  A
C676       C1443   1.379   1_455  A
C676        C677   1.403       .  A
C676        O682   1.317       .  A
C677        C678   1.402       .  A
C677        H686   1.082       .  S
C678       C1441   1.381   1_455  A
C678        C681   1.363       .  A
O679       C1448   1.330       .  A
C680        C681   1.390       .  A
C680       O1447   1.330   1_455  A
C681        H687   1.083       .  S
O682        C683   1.332       .  A
C683       C1452   1.393   1_455  A
C684       C1451   1.393       .  A
C684        H688   1.082       .  S
C689       C1462   1.381   1_455  A
C689        C690   1.402       .  A
C689        O695   1.318       .  A
C690        C691   1.401       .  A
C690        H701   1.082       .  S
C691        C700   1.359       .  A
C691       C1460   1.379   1_455  A
C692       C1459   1.379       .  A
C692        C693   1.404       .  A
C692        O698   1.319       .  A
C693        C694   1.404       .  A
C693        H702   1.082       .  S
C694       C1457   1.381       .  A
C694        C697   1.363       .  A
O695        C696   1.329   1_455  A
C696       C1465   1.391       .  A
C697       C1464   1.391       .  A
C697        H703   1.082       .  S
O698       C1467   1.333       .  A
C699        C700   1.393       .  A
C699       O1466   1.333   1_455  A
C700        H704   1.082       .  S
C705       C1478   1.381       .  A
C705        C706   1.401       .  A
C705        O711   1.317       .  A
C706        C707   1.401       .  A
C706        H717   1.082       .  S
C707        C716   1.359       .  A
C707       C1476   1.380       .  A
C708       C1475   1.380   1_455  A
C708        C709   1.405       .  A
C708        O714   1.320       .  A
C709        C710   1.404       .  A
C709        H718   1.082       .  S
C710       C1473   1.381   1_455  A
C710        C713   1.363       .  A
O711       C1480   1.330       .  A
C712        C713   1.392       .  A
C712       O1479   1.330   1_455  A
C713        H719   1.083       .  S
O714        C715   1.332       .  A
C715       C1484   1.390   1_455  A
C716       C1483   1.390       .  A
C716        H720   1.083       .  S
C721       C1494   1.381       .  A
C721        C722   1.404       .  A
C721        O727   1.320       .  A
C722        C723   1.404       .  A
C722        H733   1.082       .  S
C723        C732   1.362       .  A
C723       C1492   1.381       .  A
C724       C1491   1.381   1_455  A
C724        C725   1.401       .  A
C724        O730   1.317       .  A
C725        C726   1.400       .  A
C725        H734   1.082       .  S
C726       C1489   1.381   1_455  A
C726        C729   1.358       .  A
O727       C1496   1.331       .  A
C728        C729   1.390       .  A
C728       O1495   1.331   1_455  A
C729        H735   1.082       .  S
O730        C731   1.329       .  A
C731       C1500   1.392   1_455  A
C732       C1499   1.392       .  A
C732        H736   1.082       .  S
C737       C1510   1.381   1_556  A
C737        C738   1.403       .  A
C737        O743   1.319       .  A
C738        C739   1.402       .  A
C738        H749   1.082       .  S
C739        C748   1.360       .  A
C739       C1508   1.379   1_556  A
C740       C1507   1.379   1_454  A
C740        C741   1.404       .  A
C740        O746   1.318       .  A
C741        C742   1.403       .  A
C741        H750   1.082       .  S
C742       C1505   1.381   1_454  A
C742        C745   1.363       .  A
O743        C744   1.330       .  A
C744       C1513   1.390   1_556  A
C745       C1512   1.390   1_554  A
C745        H751   1.083       .  S
O746        C747   1.333   1_455  A
C747       C1516   1.394   1_554  A
C748       C1515   1.394   1_556  A
C748        H752   1.082       .  S
C753       C1526   1.379   1_556  A
C753        C754   1.401       .  A
C753        O759   1.316       .  A
C754        C755   1.400       .  A
C754        H765   1.082       .  S
C755        C764   1.359       .  A
C755       C1524   1.381   1_556  A
C756       C1523   1.381   1_454  A
C756        C757   1.405       .  A
C756        O762   1.320       .  A
C757        C758   1.404       .  A
C757        H766   1.082       .  S
C758       C1521   1.379   1_454  A
C758        C761   1.362       .  A
O759       C1528   1.329   1_556  A
C760        C761   1.394       .  A
C760       O1527   1.329   1_454  A
C761        H767   1.082       .  S
O762       C1531   1.331   1_554  A
C763        C764   1.388       .  A
C763       O1530   1.331   1_556  A
C764        H768   1.082       .  S
O769        V777   1.905   1_554  S
O770        V777   1.897       .  S
O771        V777   1.899       .  S
O771        C781   1.263   1_655  A
O772        V777   1.897       .  S
O772        C782   1.263   1_655  A
O773        V778   1.903       .  S
O774        V778   1.904       .  S
O775        V778   1.904       .  S
O775        C780   1.265       .  A
O776        V778   1.892   1_554  S
O776        C779   1.263       .  A
C779       C1112   1.467       .  S
C780       C1096   1.468       .  S
C781       C1128   1.466       .  S
C782       C1147   1.463       .  S
O783        V791   1.899       .  S
O783        C793   1.264       .  A
O784        V791   1.903       .  S
O784        C794   1.264       .  A
O785        V791   1.903       .  S
O785        C795   1.264       .  A
O786        V791   1.901       .  S
O786        C796   1.264       .  A
O787        V792   1.902       .  S
O788        V792   1.900       .  S
O789        V792   1.898       .  S
O790        V792   1.899       .  S
C793       C1115   1.466       .  S
C794       C1099   1.469       .  S
C795       C1064   1.465       .  S
C796       C1080   1.465       .  S
C797       C1003   1.491   1_554  S
C797        C798   1.418       .  A
C797        C802   1.419       .  A
C798       C1032   1.486       .  S
C798       C1183   1.416   1_545  A
C799       C1144   1.491       .  S
C799       C1182   1.416       .  A
C800       C1019   1.493       .  S
C800       C1185   1.423       .  A
C801       C1048   1.489   1_554  S
C801       C1184   1.423       .  A
C802       C1131   1.494       .  S
C803        C955   1.493       .  S
C803       C1192   1.421       .  A
C804       C1083   1.493       .  S
C804       C1189   1.421       .  A
C805        C971   1.489       .  S
C805       C1188   1.421   1_545  A
C805        C806   1.422       .  A
C806        C936   1.493       .  S
C806        C807   1.419       .  A
C807       C1067   1.493       .  S
C808        C987   1.490       .  S
C808       C1187   1.421   1_545  A
O809        V817   1.894       .  S
O809       C1203   1.263       .  A
O810        V817   1.904   1_554  S
O810       C1204   1.265       .  A
O811        V817   1.902       .  S
O811       C1205   1.264       .  A
O812        V817   1.902       .  S
O812       C1206   1.264       .  A
O813        V818   1.897       .  S
O813        C822   1.263   1_545  A
O814        V818   1.898   1_554  S
O814        C821   1.262   1_544  A
O815        V818   1.896   1_554  S
O815        C820   1.263   1_545  A
O816        V818   1.904       .  S
O816        C819   1.265   1_545  A
V817       V1202   2.090       .  T
V818       V1201   2.090   1_545  T
C819       O1193   1.263       .  A
C819        C907   1.467       .  S
C820       O1194   1.265       .  A
C820        C923   1.468       .  S
C821       O1195   1.264       .  A
C821       C1035   1.461       .  S
C822       O1196   1.264       .  A
C822       C1051   1.463       .  S
O823        V831   1.900       .  S
O823        C833   1.264   1_545  A
O824        V831   1.898       .  S
O824        C834   1.264   1_545  A
O825        V831   1.898       .  S
O825        C835   1.263   1_545  A
O826        V831   1.898       .  S
O826        C836   1.263   1_545  A
O827        V832   1.902       .  S
O827       C1220   1.264       .  A
O828        V832   1.901       .  S
O828       C1219   1.264       .  A
O829        V832   1.900       .  S
O829       C1218   1.264       .  A
O830        V832   1.900       .  S
O830       C1217   1.265       .  A
V831       V1216   2.084   1_545  T
V832       V1215   2.084       .  T
C833       O1214   1.265       .  A
C833        C920   1.468       .  S
C834       O1213   1.264       .  A
C834        C904   1.466       .  S
C835       O1212   1.264       .  A
C835        C984   1.463       .  S
C836       O1211   1.264       .  A
C836        C968   1.463       .  S
O837        V845   1.897       .  S
O837        C847   1.263       .  A
O838        V845   1.897   1_556  S
O838        C848   1.264       .  A
O839        V845   1.900   1_556  S
O839        C849   1.264   1_556  A
O840        V845   1.896       .  S
O840        C850   1.263       .  A
O841        V846   1.903   1_556  S
O841        C850   1.263   1_556  A
O842        V846   1.903       .  S
O842        C849   1.264       .  A
O843        V846   1.903   1_556  S
O843        C848   1.264       .  A
O844        V846   1.902       .  S
O844        C847   1.264       .  A
V845        V846   2.087       .  T
C847        C891   1.466       .  S
C848        C872   1.468       .  S
C849       C1016   1.465       .  S
C850       C1000   1.462       .  S
O851        V859   1.897       .  S
O851        C861   1.264       .  A
O852        V859   1.898       .  S
O852        C862   1.264       .  A
O853        V859   1.901       .  S
O853        C863   1.264       .  A
O854        V859   1.903       .  S
O854        C864   1.264       .  A
O855        V860   1.899       .  S
O855        C864   1.263       .  A
O856        V860   1.902       .  S
O856        C863   1.264       .  A
O857        V860   1.902       .  S
O857        C862   1.265       .  A
O858        V860   1.904       .  S
O858        C861   1.265       .  A
V859        V860   2.083       .  T
C861        C888   1.467       .  S
C862        C875   1.468       .  S
C863        C952   1.465       .  S
C864        C939   1.465       .  S
C865        C870   1.381       .  A
C865        C866   1.404       .  A
C865        O871   1.320       .  A
C866        C867   1.403       .  A
C866        H877   1.082       .  S
C867        C876   1.361       .  A
C867        C868   1.381       .  A
C868        C869   1.402       .  A
C868        O874   1.318       .  A
C869        C870   1.401       .  A
C869        H878   1.082       .  S
C870        C873   1.360       .  A
O871        C872   1.331       .  A
C872        C873   1.390       .  A
C873        H879   1.083       .  S
O874        C875   1.330       .  A
C875        C876   1.391       .  A
C876        H880   1.082       .  S
C881        C886   1.381       .  A
C881        C882   1.404       .  A
C881        O887   1.320       .  A
C882        C883   1.403       .  A
C882        H893   1.082       .  S
C883        C892   1.361       .  A
C883        C884   1.381       .  A
C884        C885   1.401       .  A
C884        O890   1.318       .  A
C885        C886   1.401       .  A
C885        H894   1.082       .  S
C886        C889   1.359       .  A
O887        C888   1.331       .  A
C888        C889   1.390       .  A
C889        H895   1.083       .  S
O890        C891   1.329       .  A
C891        C892   1.391       .  A
C892        H896   1.082       .  S
C897       C1286   1.381       .  A
C897        C898   1.402       .  A
C897        O903   1.318       .  A
C898        C899   1.402       .  A
C898        H909   1.082       .  S
C899        C908   1.360       .  A
C899       C1284   1.381       .  A
C900       C1283   1.381   1_545  A
C900        C901   1.402       .  A
C900        O906   1.319       .  A
C901        C902   1.402       .  A
C901        H910   1.082       .  S
C902       C1281   1.381   1_545  A
C902        C905   1.360       .  A
O903       C1288   1.330       .  A
C904        C905   1.390   1_565  A
C904       O1287   1.330       .  A
C905        H911   1.082       .  S
O906        C907   1.330   1_545  A
C907       C1292   1.391       .  A
C908       C1291   1.391       .  A
C908        H912   1.082       .  S
C913       C1302   1.381   1_545  A
C913        C914   1.403       .  A
C913        O919   1.319       .  A
C914        C915   1.402       .  A
C914        H925   1.082       .  S
C915        C924   1.360       .  A
C915       C1300   1.381   1_545  A
C916       C1299   1.381       .  A
C916        C917   1.402       .  A
C916        O922   1.319       .  A
C917        C918   1.402       .  A
C917        H926   1.082       .  S
C918       C1297   1.381       .  A
C918        C921   1.361       .  A
O919        C920   1.331   1_545  A
C920       C1305   1.391       .  A
C921       C1304   1.391       .  A
C921        H927   1.082       .  S
O922       C1307   1.330       .  A
C923        C924   1.391   1_565  A
C923       O1306   1.330       .  A
C924        H928   1.082       .  S
C929        C934   1.379       .  A
C929        C930   1.403       .  A
C929        O935   1.318       .  A
C930        C931   1.402       .  A
C930        H941   1.082       .  S
C931        C940   1.362       .  A
C931        C932   1.381       .  A
C932        C933   1.403       .  A
C932        O938   1.318       .  A
C933        C934   1.402       .  A
C933        H942   1.082       .  S
C934        C937   1.361       .  A
O935        C936   1.332       .  A
C936        C937   1.394       .  A
C937        H943   1.082       .  S
O938        C939   1.330       .  A
C939        C940   1.390       .  A
C940        H944   1.082       .  S
C945        C950   1.381       .  A
C945        C946   1.402       .  A
C945        O951   1.318       .  A
C946        C947   1.401       .  A
C946        H957   1.082       .  S
C947        C956   1.359       .  A
C947        C948   1.379       .  A
C948        C949   1.404       .  A
C948        O954   1.318       .  A
C949        C950   1.403       .  A
C949        H958   1.082       .  S
C950        C953   1.363       .  A
O951        C952   1.329       .  A
C952        C953   1.390       .  A
C953        H959   1.083       .  S
O954        C955   1.333       .  A
C955        C956   1.393       .  A
C956        H960   1.082       .  S
C961       C1350   1.381   1_545  A
C961        C962   1.401       .  A
C961        O967   1.317       .  A
C962        C963   1.400       .  A
C962        H973   1.082       .  S
C963        C972   1.358       .  A
C963       C1348   1.379   1_545  A
C964       C1347   1.379       .  A
C964        C965   1.403       .  A
C964        O970   1.317       .  A
C965        C966   1.403       .  A
C965        H974   1.082       .  S
C966       C1345   1.381       .  A
C966        C969   1.363       .  A
O967        C968   1.329   1_545  A
C968       C1353   1.390       .  A
C969       C1352   1.390       .  A
C969        H975   1.082       .  S
O970       C1355   1.332       .  A
C971        C972   1.393       .  A
C971       O1354   1.332   1_545  A
C972        H976   1.082       .  S
C977       C1366   1.381       .  A
C977        C978   1.402       .  A
C977        O983   1.318       .  A
C978        C979   1.401       .  A
C978        H989   1.082       .  S
C979        C988   1.359       .  A
C979       C1364   1.379       .  A
C980       C1363   1.379   1_565  A
C980        C981   1.403       .  A
C980        O986   1.317       .  A
C981        C982   1.402       .  A
C981        H990   1.082       .  S
C982       C1361   1.381   1_565  A
C982        C985   1.362       .  A
O983       C1368   1.330       .  A
C984        C985   1.389       .  A
C984       O1367   1.330   1_565  A
C985        H991   1.083       .  S
O986        C987   1.332   1_565  A
C987       C1372   1.393       .  A
C988       C1371   1.393       .  A
C988        H992   1.082       .  S
C993        C998   1.381   1_556  A
C993        C994   1.405       .  A
C993        O999   1.320       .  A
C994        C995   1.404       .  A
C994       H1005   1.082       .  S
C995       C1004   1.363       .  A
C995        C996   1.379   1_556  A
C996        C997   1.399       .  A
C996       O1002   1.314       .  A
C997        C998   1.399       .  A
C997       H1006   1.082       .  S
C998       C1001   1.358       .  A
O999       C1000   1.331   1_556  A
C1000      C1001   1.387       .  A
C1001      H1007   1.083       .  S
O1002      C1003   1.328   1_554  A
C1003      C1004   1.395       .  A
C1004      H1008   1.082       .  S
C1009      C1014   1.381   1_554  A
C1009      C1010   1.405       .  A
C1009      O1015   1.320       .  A
C1010      C1011   1.404       .  A
C1010      H1021   1.082       .  S
C1011      C1020   1.363       .  A
C1011      C1012   1.379   1_554  A
C1012      C1013   1.402       .  A
C1012      O1018   1.316       .  A
C1013      C1014   1.401       .  A
C1013      H1022   1.082       .  S
C1014      C1017   1.360       .  A
O1015      C1016   1.331       .  A
C1016      C1017   1.389   1_554  A
C1017      H1023   1.083       .  S
O1018      C1019   1.330   1_556  A
C1019      C1020   1.395       .  A
C1020      H1024   1.082       .  S
C1025      C1414   1.380   1_556  A
C1025      C1026   1.404       .  A
C1025      O1031   1.320       .  A
C1026      C1027   1.404       .  A
C1026      H1037   1.082       .  S
C1027      C1036   1.363       .  A
C1027      C1412   1.381   1_556  A
C1028      C1411   1.381   1_544  A
C1028      C1029   1.401       .  A
C1028      O1034   1.318       .  A
C1029      C1030   1.400       .  A
C1029      H1038   1.082       .  S
C1030      C1409   1.380   1_544  A
C1030      C1033   1.358       .  A
O1031      C1416   1.332   1_556  A
C1032      C1033   1.391       .  A
C1032      O1415   1.332   1_544  A
C1033      H1039   1.082       .  S
O1034      C1035   1.329   1_544  A
C1035      C1420   1.390       .  A
C1036      C1419   1.390       .  A
C1036      H1040   1.082       .  S
C1041      C1430   1.380   1_544  A
C1041      C1042   1.402       .  A
C1041      O1047   1.317       .  A
C1042      C1043   1.401       .  A
C1042      H1053   1.082       .  S
C1043      C1052   1.360       .  A
C1043      C1428   1.381   1_544  A
C1044      C1427   1.381   1_556  A
C1044      C1045   1.403       .  A
C1044      O1050   1.319       .  A
C1045      C1046   1.402       .  A
C1045      H1054   1.082       .  S
C1046      C1425   1.380   1_556  A
C1046      C1049   1.360       .  A
O1047      C1048   1.331   1_544  A
C1048      C1433   1.394       .  A
C1049      C1432   1.394       .  A
C1049      H1055   1.082       .  S
O1050      C1435   1.330       .  A
C1051      C1052   1.389   1_566  A
C1051      O1434   1.330       .  A
C1052      H1056   1.082       .  S
C1057      C1058   1.403       .  A
C1057      O1063   1.318       .  A
C1058      C1059   1.402       .  A
C1058      H1069   1.082       .  S
C1059      C1068   1.361       .  A
C1060      C1061   1.403       .  A
C1060      O1066   1.317       .  A
C1061      C1062   1.402       .  A
C1061      H1070   1.082       .  S
C1062      C1065   1.362       .  A
C1064      C1065   1.390       .  A
C1065      H1071   1.083       .  S
O1066      C1067   1.332       .  A
C1068      H1072   1.082       .  S
C1073      C1074   1.402       .  A
C1073      O1079   1.318       .  A
C1074      C1075   1.401       .  A
C1074      H1085   1.082       .  S
C1075      C1084   1.359       .  A
C1076      C1077   1.404       .  A
C1076      O1082   1.319       .  A
C1077      C1078   1.404       .  A
C1077      H1086   1.082       .  S
C1078      C1081   1.363       .  A
O1079      C1080   1.329       .  A
C1081      H1087   1.082       .  S
C1083      C1084   1.393       .  A
C1084      H1088   1.082       .  S
C1089      C1090   1.401       .  A
C1089      O1095   1.317       .  A
C1090      C1091   1.401       .  A
C1090      H1101   1.082       .  S
C1091      C1100   1.359       .  A
C1092      C1093   1.405       .  A
C1092      O1098   1.320       .  A
C1093      C1094   1.404       .  A
C1093      H1102   1.082       .  S
C1094      C1097   1.363       .  A
C1096      C1097   1.392       .  A
C1097      H1103   1.082       .  S
O1098      C1099   1.332       .  A
C1100      H1104   1.083       .  S
C1105      C1106   1.404       .  A
C1105      O1111   1.320       .  A
C1106      C1107   1.403       .  A
C1106      H1117   1.082       .  S
C1107      C1116   1.362       .  A
C1108      C1109   1.401       .  A
C1108      O1114   1.317       .  A
C1109      C1110   1.400       .  A
C1109      H1118   1.082       .  S
C1110      C1113   1.358       .  A
C1112      C1113   1.390       .  A
C1113      H1119   1.082       .  S
O1114      C1115   1.329       .  A
C1116      H1120   1.082       .  S
C1121      C1122   1.403       .  A
C1121      O1127   1.319       .  A
C1122      C1123   1.402       .  A
C1122      H1133   1.082       .  S
C1123      C1132   1.360       .  A
C1124      C1125   1.404       .  A
C1124      O1130   1.318       .  A
C1125      C1126   1.403       .  A
C1125      H1134   1.082       .  S
C1126      C1129   1.363       .  A
O1127      C1128   1.330   1_655  A
C1129      H1135   1.083       .  S
O1130      C1131   1.333       .  A
C1132      H1136   1.082       .  S
C1137      C1138   1.401       .  A
C1137      O1143   1.316       .  A
C1138      C1139   1.400       .  A
C1138      H1149   1.082       .  S
C1139      C1148   1.359       .  A
C1140      C1141   1.405       .  A
C1140      O1146   1.320       .  A
C1141      C1142   1.404       .  A
C1141      H1150   1.082       .  S
C1142      C1145   1.362       .  A
C1144      C1145   1.394       .  A
C1145      H1151   1.082       .  S
C1147      C1148   1.388   1_455  A
C1148      H1152   1.082       .  S
O1153      V1161   1.905   1_554  S
O1154      V1161   1.897       .  S
O1155      V1161   1.899       .  S
O1155      C1165   1.263   1_655  A
O1156      V1161   1.897       .  S
O1156      C1166   1.263   1_655  A
O1157      V1162   1.903       .  S
O1158      V1162   1.904       .  S
O1159      V1162   1.904       .  S
O1159      C1164   1.265       .  A
O1160      V1162   1.892   1_554  S
O1160      C1163   1.263       .  A
C1163      C1496   1.467       .  S
C1164      C1480   1.468       .  S
C1165      C1512   1.466       .  S
C1166      C1531   1.463       .  S
O1167      V1175   1.900       .  S
O1167      C1177   1.264       .  A
O1168      V1175   1.903       .  S
O1168      C1178   1.264       .  A
O1169      V1175   1.903       .  S
O1169      C1179   1.264       .  A
O1170      V1175   1.901       .  S
O1170      C1180   1.264       .  A
O1171      V1176   1.901       .  S
O1172      V1176   1.900       .  S
O1173      V1176   1.898       .  S
O1174      V1176   1.899       .  S
C1177      C1499   1.466       .  S
C1178      C1483   1.469       .  S
C1179      C1448   1.465       .  S
C1180      C1464   1.465       .  S
C1181      C1387   1.491   1_554  S
C1181      C1182   1.418       .  A
C1181      C1186   1.419       .  A
C1182      C1416   1.486       .  S
C1183      C1528   1.490       .  S
C1184      C1403   1.493       .  S
C1185      C1432   1.489   1_554  S
C1186      C1515   1.494       .  S
C1187      C1339   1.493       .  S
C1188      C1467   1.493       .  S
C1189      C1355   1.489       .  S
C1189      C1190   1.422       .  A
C1190      C1320   1.493       .  S
C1190      C1191   1.419       .  A
C1191      C1451   1.493       .  S
C1192      C1371   1.490       .  S
O1193      V1201   1.894       .  S
O1194      V1201   1.904   1_554  S
O1195      V1201   1.902       .  S
O1196      V1201   1.902       .  S
O1197      V1202   1.897       .  S
O1197      C1206   1.263       .  A
O1198      V1202   1.898   1_554  S
O1198      C1205   1.262   1_554  A
O1199      V1202   1.896   1_554  S
O1199      C1204   1.263       .  A
O1200      V1202   1.904       .  S
O1200      C1203   1.265       .  A
C1203      C1291   1.467       .  S
C1204      C1307   1.468       .  S
C1205      C1419   1.461       .  S
C1206      C1435   1.463       .  S
O1207      V1215   1.900       .  S
O1207      C1217   1.264       .  A
O1208      V1215   1.898       .  S
O1208      C1218   1.264       .  A
O1209      V1215   1.898       .  S
O1209      C1219   1.263       .  A
O1210      V1215   1.898       .  S
O1210      C1220   1.263       .  A
O1211      V1216   1.902       .  S
O1212      V1216   1.901       .  S
O1213      V1216   1.900       .  S
O1214      V1216   1.900       .  S
C1217      C1304   1.468       .  S
C1218      C1288   1.466       .  S
C1219      C1368   1.463       .  S
C1220      C1352   1.463       .  S
O1221      V1229   1.897       .  S
O1221      C1231   1.263       .  A
O1222      V1229   1.897   1_556  S
O1222      C1232   1.264       .  A
O1223      V1229   1.900   1_556  S
O1223      C1233   1.264   1_556  A
O1224      V1229   1.896       .  S
O1224      C1234   1.263       .  A
O1225      V1230   1.903   1_556  S
O1225      C1234   1.263   1_556  A
O1226      V1230   1.903       .  S
O1226      C1233   1.264       .  A
O1227      V1230   1.903   1_556  S
O1227      C1232   1.264       .  A
O1228      V1230   1.902       .  S
O1228      C1231   1.264       .  A
V1229      V1230   2.087       .  T
C1231      C1275   1.467       .  S
C1232      C1256   1.468       .  S
C1233      C1400   1.465       .  S
C1234      C1384   1.462       .  S
O1235      V1243   1.897       .  S
O1235      C1245   1.264       .  A
O1236      V1243   1.898       .  S
O1236      C1246   1.264       .  A
O1237      V1243   1.901       .  S
O1237      C1247   1.264       .  A
O1238      V1243   1.903       .  S
O1238      C1248   1.264       .  A
O1239      V1244   1.899       .  S
O1239      C1248   1.263       .  A
O1240      V1244   1.902       .  S
O1240      C1247   1.264       .  A
O1241      V1244   1.902       .  S
O1241      C1246   1.265       .  A
O1242      V1244   1.904       .  S
O1242      C1245   1.265       .  A
V1243      V1244   2.083       .  T
C1245      C1272   1.468       .  S
C1246      C1259   1.468       .  S
C1247      C1336   1.465       .  S
C1248      C1323   1.465       .  S
C1249      C1254   1.381       .  A
C1249      C1250   1.404       .  A
C1249      O1255   1.320       .  A
C1250      C1251   1.403       .  A
C1250      H1261   1.082       .  S
C1251      C1260   1.361       .  A
C1251      C1252   1.381       .  A
C1252      C1253   1.402       .  A
C1252      O1258   1.318       .  A
C1253      C1254   1.401       .  A
C1253      H1262   1.082       .  S
C1254      C1257   1.360       .  A
O1255      C1256   1.331       .  A
C1256      C1257   1.390       .  A
C1257      H1263   1.083       .  S
O1258      C1259   1.330       .  A
C1259      C1260   1.391       .  A
C1260      H1264   1.082       .  S
C1265      C1270   1.381       .  A
C1265      C1266   1.404       .  A
C1265      O1271   1.320       .  A
C1266      C1267   1.403       .  A
C1266      H1277   1.082       .  S
C1267      C1276   1.361       .  A
C1267      C1268   1.381       .  A
C1268      C1269   1.401       .  A
C1268      O1274   1.318       .  A
C1269      C1270   1.401       .  A
C1269      H1278   1.082       .  S
C1270      C1273   1.359       .  A
O1271      C1272   1.331       .  A
C1272      C1273   1.390       .  A
C1273      H1279   1.083       .  S
O1274      C1275   1.329       .  A
C1275      C1276   1.391       .  A
C1276      H1280   1.082       .  S
C1281      C1282   1.402       .  A
C1281      O1287   1.318       .  A
C1282      C1283   1.402       .  A
C1282      H1293   1.082       .  S
C1283      C1292   1.360       .  A
C1284      C1285   1.402       .  A
C1284      O1290   1.319       .  A
C1285      C1286   1.402       .  A
C1285      H1294   1.082       .  S
C1286      C1289   1.360       .  A
C1288      C1289   1.390       .  A
C1289      H1295   1.082       .  S
O1290      C1291   1.330       .  A
C1292      H1296   1.082       .  S
C1297      C1298   1.403       .  A
C1297      O1303   1.319       .  A
C1298      C1299   1.402       .  A
C1298      H1309   1.082       .  S
C1299      C1308   1.360       .  A
C1300      C1301   1.403       .  A
C1300      O1306   1.319       .  A
C1301      C1302   1.402       .  A
C1301      H1310   1.082       .  S
C1302      C1305   1.361       .  A
O1303      C1304   1.331       .  A
C1305      H1311   1.082       .  S
C1307      C1308   1.391       .  A
C1308      H1312   1.082       .  S
C1313      C1318   1.379       .  A
C1313      C1314   1.403       .  A
C1313      O1319   1.318       .  A
C1314      C1315   1.402       .  A
C1314      H1325   1.082       .  S
C1315      C1324   1.362       .  A
C1315      C1316   1.381       .  A
C1316      C1317   1.403       .  A
C1316      O1322   1.318       .  A
C1317      C1318   1.402       .  A
C1317      H1326   1.082       .  S
C1318      C1321   1.361       .  A
O1319      C1320   1.332       .  A
C1320      C1321   1.394       .  A
C1321      H1327   1.082       .  S
O1322      C1323   1.330       .  A
C1323      C1324   1.390       .  A
C1324      H1328   1.082       .  S
C1329      C1334   1.381       .  A
C1329      C1330   1.402       .  A
C1329      O1335   1.318       .  A
C1330      C1331   1.401       .  A
C1330      H1341   1.082       .  S
C1331      C1340   1.359       .  A
C1331      C1332   1.379       .  A
C1332      C1333   1.404       .  A
C1332      O1338   1.318       .  A
C1333      C1334   1.403       .  A
C1333      H1342   1.082       .  S
C1334      C1337   1.363       .  A
O1335      C1336   1.329       .  A
C1336      C1337   1.390       .  A
C1337      H1343   1.083       .  S
O1338      C1339   1.333       .  A
C1339      C1340   1.393       .  A
C1340      H1344   1.082       .  S
C1345      C1346   1.401       .  A
C1345      O1351   1.317       .  A
C1346      C1347   1.400       .  A
C1346      H1357   1.082       .  S
C1347      C1356   1.358       .  A
C1348      C1349   1.403       .  A
C1348      O1354   1.317       .  A
C1349      C1350   1.403       .  A
C1349      H1358   1.082       .  S
C1350      C1353   1.363       .  A
O1351      C1352   1.329       .  A
C1353      H1359   1.082       .  S
C1355      C1356   1.393       .  A
C1356      H1360   1.082       .  S
C1361      C1362   1.402       .  A
C1361      O1367   1.318       .  A
C1362      C1363   1.401       .  A
C1362      H1373   1.082       .  S
C1363      C1372   1.359       .  A
C1364      C1365   1.403       .  A
C1364      O1370   1.318       .  A
C1365      C1366   1.402       .  A
C1365      H1374   1.082       .  S
C1366      C1369   1.362       .  A
C1368      C1369   1.389       .  A
C1369      H1375   1.083       .  S
O1370      C1371   1.332       .  A
C1372      H1376   1.082       .  S
C1377      C1382   1.381   1_556  A
C1377      C1378   1.405       .  A
C1377      O1383   1.320       .  A
C1378      C1379   1.404       .  A
C1378      H1389   1.082       .  S
C1379      C1388   1.363       .  A
C1379      C1380   1.379   1_556  A
C1380      C1381   1.399       .  A
C1380      O1386   1.314       .  A
C1381      C1382   1.399       .  A
C1381      H1390   1.082       .  S
C1382      C1385   1.358       .  A
O1383      C1384   1.331   1_556  A
C1384      C1385   1.387       .  A
C1385      H1391   1.083       .  S
O1386      C1387   1.328   1_554  A
C1387      C1388   1.395       .  A
C1388      H1392   1.082       .  S
C1393      C1398   1.381   1_554  A
C1393      C1394   1.405       .  A
C1393      O1399   1.320       .  A
C1394      C1395   1.404       .  A
C1394      H1405   1.082       .  S
C1395      C1404   1.363       .  A
C1395      C1396   1.379   1_554  A
C1396      C1397   1.402       .  A
C1396      O1402   1.316       .  A
C1397      C1398   1.401       .  A
C1397      H1406   1.082       .  S
C1398      C1401   1.360       .  A
O1399      C1400   1.331       .  A
C1400      C1401   1.389   1_554  A
C1401      H1407   1.083       .  S
O1402      C1403   1.330   1_556  A
C1403      C1404   1.395       .  A
C1404      H1408   1.082       .  S
C1409      C1410   1.404       .  A
C1409      O1415   1.320       .  A
C1410      C1411   1.404       .  A
C1410      H1421   1.082       .  S
C1411      C1420   1.363       .  A
C1412      C1413   1.401       .  A
C1412      O1418   1.318       .  A
C1413      C1414   1.400       .  A
C1413      H1422   1.082       .  S
C1414      C1417   1.358       .  A
C1416      C1417   1.391       .  A
C1417      H1423   1.082       .  S
O1418      C1419   1.329   1_554  A
C1420      H1424   1.082       .  S
C1425      C1426   1.402       .  A
C1425      O1431   1.317       .  A
C1426      C1427   1.401       .  A
C1426      H1437   1.082       .  S
C1427      C1436   1.360       .  A
C1428      C1429   1.403       .  A
C1428      O1434   1.319       .  A
C1429      C1430   1.402       .  A
C1429      H1438   1.082       .  S
C1430      C1433   1.359       .  A
O1431      C1432   1.331   1_554  A
C1433      H1439   1.082       .  S
C1435      C1436   1.389   1_556  A
C1436      H1440   1.082       .  S
C1441      C1442   1.403       .  A
C1441      O1447   1.318       .  A
C1442      C1443   1.402       .  A
C1442      H1453   1.082       .  S
C1443      C1452   1.361       .  A
C1444      C1445   1.403       .  A
C1444      O1450   1.317       .  A
C1445      C1446   1.402       .  A
C1445      H1454   1.082       .  S
C1446      C1449   1.363       .  A
C1448      C1449   1.390       .  A
C1449      H1455   1.083       .  S
O1450      C1451   1.332       .  A
C1452      H1456   1.082       .  S
C1457      C1458   1.402       .  A
C1457      O1463   1.318       .  A
C1458      C1459   1.401       .  A
C1458      H1469   1.082       .  S
C1459      C1468   1.359       .  A
C1460      C1461   1.404       .  A
C1460      O1466   1.319       .  A
C1461      C1462   1.404       .  A
C1461      H1470   1.082       .  S
C1462      C1465   1.363       .  A
O1463      C1464   1.329       .  A
C1465      H1471   1.082       .  S
C1467      C1468   1.393       .  A
C1468      H1472   1.082       .  S
C1473      C1474   1.401       .  A
C1473      O1479   1.317       .  A
C1474      C1475   1.401       .  A
C1474      H1485   1.082       .  S
C1475      C1484   1.359       .  A
C1476      C1477   1.405       .  A
C1476      O1482   1.320       .  A
C1477      C1478   1.404       .  A
C1477      H1486   1.082       .  S
C1478      C1481   1.363       .  A
C1480      C1481   1.392       .  A
C1481      H1487   1.083       .  S
O1482      C1483   1.332       .  A
C1484      H1488   1.083       .  S
C1489      C1490   1.404       .  A
C1489      O1495   1.320       .  A
C1490      C1491   1.404       .  A
C1490      H1501   1.082       .  S
C1491      C1500   1.362       .  A
C1492      C1493   1.401       .  A
C1492      O1498   1.317       .  A
C1493      C1494   1.400       .  A
C1493      H1502   1.082       .  S
C1494      C1497   1.358       .  A
C1496      C1497   1.390       .  A
C1497      H1503   1.082       .  S
O1498      C1499   1.329       .  A
C1500      H1504   1.082       .  S
C1505      C1506   1.403       .  A
C1505      O1511   1.319       .  A
C1506      C1507   1.402       .  A
C1506      H1517   1.082       .  S
C1507      C1516   1.360       .  A
C1508      C1509   1.404       .  A
C1508      O1514   1.318       .  A
C1509      C1510   1.403       .  A
C1509      H1518   1.082       .  S
C1510      C1513   1.363       .  A
O1511      C1512   1.330   1_655  A
C1513      H1519   1.083       .  S
O1514      C1515   1.333       .  A
C1516      H1520   1.082       .  S
C1521      C1522   1.401       .  A
C1521      O1527   1.316       .  A
C1522      C1523   1.400       .  A
C1522      H1533   1.082       .  S
C1523      C1532   1.359       .  A
C1524      C1525   1.405       .  A
C1524      O1530   1.320       .  A
C1525      C1526   1.404       .  A
C1525      H1534   1.082       .  S
C1526      C1529   1.362       .  A
C1528      C1529   1.394       .  A
C1529      H1535   1.082       .  S
C1531      C1532   1.388   1_455  A
C1532      H1536   1.082       .  S
