geometry optimzed in LAMMPS
_audit_creation_date              2020-12-01 
_audit_creation_method            'lammps2cif' 
_symmetry_space_group_name_H-M    'P1' 
_symmetry_Int_Tables_number       1 
_symmetry_cell_setting            triclinic 
loop_ 
_symmetry_equiv_pos_as_xyz 
  x,y,z 
_cell_length_a                    58.9224215 
_cell_length_b                    58.93560698731518 
_cell_length_c                    35.61197408912255 
_cell_angle_alpha                 89.68011465295727 
_cell_angle_beta                  90.09963589370113 
_cell_angle_gamma                 90.23993200411832 
loop_ 
_atom_site_label 
_atom_site_type_symbol 
_atom_site_fract_x 
_atom_site_fract_y 
_atom_site_fract_z 
_atom_site_charge 
N1          N  0.24463380  0.50095102  0.13387714    -0.01200
C2          C  0.24626737  0.48290390  0.11058223     0.01400
C3          C  0.24379837  0.48971871  0.07361766    -0.21500
C4          C  0.24046364  0.51278759  0.07411715    -0.21700
C5          C  0.24115952  0.51930179  0.11138280     0.01300
H6          H  0.24421807  0.47903925  0.04900107     0.15100
H7          H  0.23829276  0.52370120  0.04984214     0.15200
N8          N  0.26132333  0.49971864  0.41346760    -0.01200
C9          C  0.26401809  0.48123485  0.43599850     0.01400
C10         C  0.27009430  0.48787923  0.47181742    -0.21500
C11         C  0.27096809  0.51116822  0.47153981    -0.21700
C12         C  0.26542973  0.51802465  0.43550630     0.01300
H13         H  0.27367616  0.47690939  0.49553198     0.15100
H14         H  0.27494391  0.52193990  0.49518928     0.15200
N15         N  0.99862304  0.75931654  0.37446279    -0.01200
C16         C  0.01708323  0.76051031  0.35170426     0.01400
C17         C  0.01051663  0.76594909  0.31544018    -0.21500
C18         C  0.98729764  0.76826036  0.31589080    -0.21700
C19         C  0.98042457  0.76400737  0.35234645     0.01300
H20         H  0.02144441  0.76810432  0.29128898     0.15100
H21         H  0.97654139  0.77206244  0.29203003     0.15200
N22         N  0.99867348  0.73361084  0.14649925    -0.01200
C23         C  0.97957099  0.72853546  0.16612344     0.01400
C24         C  0.98481173  0.72345472  0.20301338    -0.21500
C25         C  0.00791107  0.72580422  0.20646984    -0.21700
C26         C  0.01607671  0.73221123  0.17152422     0.01300
H27         H  0.97301007  0.71943269  0.22535782     0.15100
H28         H  0.01766052  0.72356432  0.23200332     0.15200
Zn29       Zn  0.26725231  0.73206654  0.43343693     1.49700
Zn30       Zn  0.22994779  0.72955469  0.36824178     1.49400
Zn31       Zn  0.22774807  0.76933488  0.42990115     1.49100
Zn32       Zn  0.26743577  0.76980219  0.36857109     1.49500
O33         O  0.24806667  0.75016597  0.39996284    -1.81800
O34         O  0.26256557  0.69840964  0.42473852    -0.72400
O35         O  0.19618792  0.73391809  0.37718859    -0.72300
O36         O  0.23261505  0.76472551  0.48595902    -0.71800
O37         O  0.23752691  0.69646055  0.37812607    -0.72500
O38         O  0.25958902  0.73843549  0.48750668    -0.72100
O39         O  0.19516276  0.76240453  0.41786480    -0.72600
O40         O  0.26019438  0.80301456  0.37625613    -0.72000
O41         O  0.23592554  0.73608568  0.31329748    -0.72800
O42         O  0.23201784  0.80254295  0.41765087    -0.72200
O43         O  0.26250802  0.76305326  0.31342351    -0.72600
O44         O  0.30067134  0.76577095  0.38112550    -0.72600
O45         O  0.30063005  0.73967781  0.42618326    -0.72300
C46         C  0.25053568  0.68684621  0.40194219     0.79400
C47         C  0.18514976  0.74810448  0.39686059     0.79900
C48         C  0.24589012  0.75165706  0.50419121     0.78900
C49         C  0.24552264  0.81329570  0.39604018     0.79300
C50         C  0.24925994  0.74959550  0.29592623     0.80400
C51         C  0.31130759  0.75343372  0.40473398     0.79500
Zn52       Zn  0.26584820  0.73159177  0.11759333     1.49700
Zn53       Zn  0.22864052  0.73203926  0.18220170     1.49400
Zn54       Zn  0.26796462  0.76917479  0.18175878     1.49100
Zn55       Zn  0.22889884  0.77126605  0.11828861     1.49500
O56         O  0.24774906  0.75112487  0.14987851    -1.81800
O57         O  0.25871881  0.69863036  0.12690311    -0.72400
O58         O  0.23533405  0.73692708  0.23719975    -0.72300
O59         O  0.30083068  0.76253464  0.17078789    -0.71800
O60         O  0.23253249  0.69860525  0.17146982    -0.72500
O61         O  0.29921882  0.73662171  0.12586018    -0.72100
O62         O  0.26256042  0.76312313  0.23704632    -0.72600
O63         O  0.23651238  0.80437942  0.12827281    -0.72000
O64         O  0.19596234  0.73967714  0.17369756    -0.72800
O65         O  0.26315080  0.80247709  0.17224018    -0.72200
O66         O  0.19541801  0.76636679  0.12945340    -0.72600
O67         O  0.23408895  0.76533837  0.06269376    -0.72600
O68         O  0.25994389  0.73797438  0.06300841    -0.72300
C69         C  0.24516708  0.68797748  0.14859812     0.79400
C70         C  0.24910947  0.74984670  0.25459547     0.79900
C71         C  0.31059657  0.74940938  0.14764589     0.78900
C72         C  0.25044290  0.81407637  0.15053137     0.79300
C73         C  0.18508994  0.75325801  0.15242408     0.80400
C74         C  0.24708791  0.75168434  0.04539583     0.79500
N75         N  0.49842069  0.74922370  0.13936342    -0.01200
C76         C  0.48000455  0.74614817  0.11705400     0.01400
C77         C  0.48654161  0.74412705  0.07995828    -0.21500
C78         C  0.50980481  0.74607190  0.07940864    -0.21700
C79         C  0.51658270  0.74922585  0.11612045     0.01300
H80         H  0.47556967  0.74150446  0.05595523     0.15100
H81         H  0.52067563  0.74472614  0.05510641     0.15200
N82         N  0.49886443  0.75882685  0.41954923    -0.01200
C83         C  0.51782166  0.75886366  0.44128816     0.01400
C84         C  0.51210242  0.76351807  0.47809573    -0.21500
C85         C  0.48889700  0.76641809  0.47892843    -0.21700
C86         C  0.48113964  0.76337143  0.44259204     0.01300
H87         H  0.52359815  0.76494645  0.50168458     0.15100
H88         H  0.47876415  0.76992592  0.50352491     0.15200
Zn89       Zn  0.76620800  0.77063370  0.41881466     1.49700
Zn90       Zn  0.72949833  0.73011815  0.41830973     1.49400
Zn91       Zn  0.72781163  0.76815175  0.35402222     1.49100
Zn92       Zn  0.76830023  0.73221374  0.35561504     1.49500
O93         O  0.74796669  0.75038850  0.38674809    -1.81800
O94         O  0.75974430  0.76467425  0.47412487    -0.72400
O95         O  0.69589370  0.73396538  0.40843551    -0.72300
O96         O  0.73292552  0.80177462  0.36173635    -0.71800
O97         O  0.73545170  0.73562181  0.47335636    -0.72500
O98         O  0.75915316  0.80342893  0.40653180    -0.72100
O99         O  0.69477681  0.76135701  0.36528144    -0.72600
O100        O  0.76335159  0.73818892  0.30014468    -0.72000
O101        O  0.73699211  0.69761286  0.40895831    -0.72800
O102        O  0.73379926  0.76158114  0.29899582    -0.72200
O103        O  0.76379357  0.69869262  0.36547076    -0.72600
O104        O  0.80089818  0.73951729  0.36691615    -0.72600
O105        O  0.80013839  0.76620047  0.41037723    -0.72300
C106        C  0.74758636  0.74991139  0.49108587     0.79400
C107        C  0.68478198  0.74733452  0.38711781     0.79900
C108        C  0.74589225  0.81321539  0.38325371     0.78900
C109        C  0.74877109  0.74988649  0.28218959     0.79300
C110        C  0.75087937  0.68751975  0.38755298     0.80400
C111        C  0.81122927  0.75316392  0.38867910     0.79500
Zn112      Zn  0.76675134  0.72935272  0.10410706     1.49700
Zn113      Zn  0.76913744  0.76769082  0.16782187     1.49400
Zn114      Zn  0.73048304  0.76958705  0.10408607     1.49100
Zn115      Zn  0.72919740  0.73096610  0.16882716     1.49500
O116        O  0.74886857  0.74945259  0.13617650    -1.81800
O117        O  0.80026535  0.73375232  0.11350113    -0.72400
O118        O  0.76486316  0.80115131  0.15723731    -0.72300
O119        O  0.73726711  0.76480785  0.04879014    -0.71800
O120        O  0.80186899  0.76030065  0.15728307    -0.72500
O121        O  0.76119676  0.73570219  0.04885437    -0.72100
O122        O  0.73716093  0.80265465  0.11499696    -0.72600
O123        O  0.69645776  0.73796435  0.15873683    -0.72000
O124        O  0.76336987  0.76205699  0.22346790    -0.72800
O125        O  0.69691273  0.76372284  0.11289918    -0.72200
O126        O  0.73488952  0.73716049  0.22379013    -0.72600
O127        O  0.73368438  0.69732634  0.16013216    -0.72600
O128        O  0.75923754  0.69642846  0.11462453    -0.72300
C129        C  0.81171129  0.74657794  0.13518388     0.79400
C130        C  0.75157246  0.81253035  0.13612617     0.79900
C131        C  0.74952614  0.75055494  0.03143890     0.78900
C132        C  0.68610505  0.75097535  0.13584471     0.79300
C133        C  0.74906047  0.74969737  0.24102016     0.80400
C134        C  0.74608681  0.68618381  0.13755106     0.79500
N135        N  0.73895943  0.49841957  0.12607893    -0.01200
C136        C  0.73627604  0.51717237  0.10429670     0.01400
C137        C  0.73402137  0.51112877  0.06700889    -0.21500
C138        C  0.73546505  0.48785509  0.06578239    -0.21700
C139        C  0.73841898  0.48046499  0.10239907     0.01300
H140        H  0.73192871  0.52244400  0.04322391     0.15100
H141        H  0.73425608  0.47743726  0.04092202     0.15200
N142        N  0.76069190  0.50054957  0.40528724    -0.01200
C143        C  0.76513225  0.51909684  0.42655942     0.01400
C144        C  0.77025330  0.51279262  0.46302891    -0.21500
C145        C  0.76880291  0.48956411  0.46445133    -0.21700
C146        C  0.76294150  0.48248078  0.42876641     0.01300
H147        H  0.77416697  0.52392060  0.48625391     0.15100
H148        H  0.77175163  0.47894732  0.48885869     0.15200
N149        N  0.74389857  0.00092782  0.37268903    -0.01200
C150        C  0.74089012  0.01984009  0.35141284     0.01400
C151        C  0.73853090  0.01418848  0.31403894    -0.21500
C152        C  0.74032099  0.99096121  0.31220078    -0.21700
C153        C  0.74370297  0.98312601  0.34854162     0.01300
H154        H  0.73608141  0.02570586  0.29062038     0.15100
H155        H  0.73892414  0.98084481  0.28705096     0.15200
N156        N  0.75837024  0.99994615  0.15252847    -0.01200
C157        C  0.75959317  0.98123019  0.17492607     0.01400
C158        C  0.76486288  0.98734709  0.21136581    -0.21500
C159        C  0.76703664  0.01055848  0.21154946    -0.21700
C160        C  0.76293984  0.01782815  0.17525015     0.01300
H161        H  0.76728375  0.97606816  0.23509303     0.15100
H162        H  0.77096779  0.02103092  0.23559193     0.15200
Zn163      Zn  0.76977905  0.23100553  0.36487341     1.49700
Zn164      Zn  0.77153695  0.26881558  0.42882638     1.49400
Zn165      Zn  0.73290848  0.27060052  0.36516227     1.49100
Zn166      Zn  0.73209378  0.23144917  0.42845827     1.49500
O167        O  0.75155391  0.25054036  0.39680818    -1.81800
O168        O  0.80292262  0.23676746  0.37333599    -0.72400
O169        O  0.76562281  0.30192665  0.42107791    -0.72300
O170        O  0.73820017  0.26494224  0.30981221    -0.71800
O171        O  0.80461439  0.26364310  0.41674611    -0.72500
O172        O  0.76338712  0.23695982  0.31001751    -0.72100
O173        O  0.73967611  0.30368369  0.37595249    -0.72600
O174        O  0.69919422  0.23760950  0.41764349    -0.72000
O175        O  0.76630649  0.26203388  0.48381636    -0.72800
O176        O  0.69962425  0.26490256  0.37460298    -0.72200
O177        O  0.73799433  0.23696025  0.48337537    -0.72600
O178        O  0.73730019  0.19816982  0.41948618    -0.72600
O179        O  0.76373103  0.19786279  0.37542735    -0.72300
C180        C  0.81431125  0.25013644  0.39412259     0.79400
C181        C  0.75291975  0.31340644  0.39925500     0.79900
C182        C  0.75067549  0.25087395  0.29245491     0.78900
C183        C  0.68874929  0.25118795  0.39577074     0.79300
C184        C  0.75221238  0.24926824  0.50100980     0.80400
C185        C  0.75037068  0.18733840  0.39762379     0.79500
Zn186      Zn  0.73512845  0.22950735  0.11342068     1.49700
Zn187      Zn  0.77181704  0.23233470  0.17981995     1.49400
Zn188      Zn  0.77072898  0.27027078  0.11550616     1.49100
Zn189      Zn  0.73027420  0.26717720  0.17725419     1.49500
O190        O  0.75197659  0.24993018  0.14658823    -1.81800
O191        O  0.74294565  0.19685177  0.12388825    -0.72400
O192        O  0.80488594  0.24027255  0.17156908    -0.72300
O193        O  0.76588201  0.26481230  0.05966262    -0.71800
O194        O  0.76776747  0.19885551  0.17071161    -0.72500
O195        O  0.74151250  0.23595407  0.05892870    -0.72100
O196        O  0.80419257  0.26592333  0.12566509    -0.72600
O197        O  0.73325948  0.30067967  0.16569194    -0.72000
O198        O  0.76480646  0.23810277  0.23425980    -0.72800
O199        O  0.76284323  0.30279871  0.12685508    -0.72200
O200        O  0.73636941  0.26278351  0.23307801    -0.72600
O201        O  0.69763902  0.25772719  0.16650826    -0.72600
O202        O  0.70150745  0.23281579  0.12045331    -0.72300
C203        C  0.75595052  0.18727004  0.14769676     0.79400
C204        C  0.81511557  0.25363106  0.14893399     0.79900
C205        C  0.75387580  0.25040798  0.04181182     0.78900
C206        C  0.74733796  0.31219866  0.14616572     0.79300
C207        C  0.75056294  0.25060640  0.25112800     0.80400
C208        C  0.68903089  0.24421503  0.14247930     0.79500
N209        N  0.50199424  0.22938840  0.13100308    -0.01200
C210        C  0.52016106  0.22466035  0.10898406     0.01400
C211        C  0.51320204  0.22121525  0.07232904    -0.21500
C212        C  0.49005836  0.22417799  0.07166375    -0.21700
C213        C  0.48359240  0.22916506  0.10798338     0.01300
H214        H  0.52391632  0.21791638  0.04833498     0.15100
H215        H  0.47916559  0.22314138  0.04722475     0.15200
N216        N  0.50163405  0.25602054  0.40800843    -0.01200
C217        C  0.48352682  0.25801474  0.43125658     0.01400
C218        C  0.49074891  0.26313660  0.46719007    -0.21500
C219        C  0.51404924  0.26419750  0.46610945    -0.21700
C220        C  0.52032168  0.25972285  0.42949450     0.01300
H221        H  0.48017141  0.26607359  0.49144441     0.15100
H222        H  0.52520813  0.26761162  0.48959613     0.15200
N223        N  0.23450849  0.00012240  0.38080886    -0.01200
C224        C  0.23283496  0.98232260  0.35684017     0.01400
C225        C  0.22828362  0.99009895  0.32084522    -0.21500
C226        C  0.22721434  0.01336840  0.32268491    -0.21700
C227        C  0.23119454  0.01903307  0.35968673     0.01300
H228        H  0.22606135  0.97994126  0.29587622     0.15100
H229        H  0.22458654  0.02493029  0.29937501     0.15200
N230        N  0.25544942  0.00083879  0.16475214    -0.01200
C231        C  0.25624143  0.98300727  0.18896399     0.01400
C232        C  0.25910564  0.99053552  0.22536269    -0.21500
C233        C  0.26021855  0.01382642  0.22352859    -0.21700
C234        C  0.25784730  0.01969230  0.18608249     0.01300
H235        H  0.26050995  0.98019080  0.25043385     0.15100
H236        H  0.26223426  0.02525852  0.24699330     0.15200
N237        N  0.00111044  0.24285646  0.37539418    -0.01200
C238        C  0.98288762  0.24267126  0.35195490     0.01400
C239        C  0.98987924  0.23942663  0.31534675    -0.21500
C240        C  0.01310463  0.23765132  0.31614013    -0.21700
C241        C  0.01955619  0.23990150  0.35324705     0.01300
H242        H  0.97911566  0.23821346  0.29062846     0.15100
H243        H  0.02414446  0.23530603  0.29220508     0.15200
N244        N  0.00264315  0.25765305  0.15100219    -0.01200
C245        C  0.02112139  0.26134692  0.17280138     0.01400
C246        C  0.01478260  0.26363316  0.20994406    -0.21500
C247        C  0.99154199  0.26115904  0.21090374    -0.21700
C248        C  0.98458277  0.25749906  0.17439585     0.01300
H249        H  0.02589085  0.26641676  0.23377099     0.15100
H250        H  0.98074377  0.26238479  0.23552887     0.15200
Zn251      Zn  0.27060638  0.23007304  0.42357631     1.49700
Zn252      Zn  0.27149833  0.26943566  0.36059576     1.49400
Zn253      Zn  0.23351663  0.23068086  0.35831207     1.49100
Zn254      Zn  0.23166259  0.26843398  0.42192032     1.49500
O255        O  0.25187617  0.24970549  0.39121028    -1.81800
O256        O  0.30398829  0.23526803  0.41351863    -0.72400
O257        O  0.26561372  0.26493640  0.30483302    -0.72300
O258        O  0.23988388  0.19762223  0.36749889    -0.71800
O259        O  0.30444075  0.26292321  0.37076970    -0.72500
O260        O  0.26422694  0.19667285  0.41509004    -0.72100
O261        O  0.23970153  0.23740309  0.30390637    -0.72600
O262        O  0.19846048  0.26203037  0.41097948    -0.72000
O263        O  0.26686684  0.30241812  0.37344277    -0.72800
O264        O  0.20017385  0.23583672  0.36654102    -0.72200
O265        O  0.23779753  0.30181001  0.41316177    -0.72600
O266        O  0.23723461  0.26258059  0.47701352    -0.72600
O267        O  0.26473358  0.23679654  0.47820481    -0.72300
C268        C  0.31474071  0.24903276  0.39226726     0.79400
C269        C  0.25263950  0.25140263  0.28691632     0.79900
C270        C  0.25194881  0.18654494  0.39090066     0.78900
C271        C  0.18872382  0.24865090  0.38797596     0.79300
C272        C  0.25271553  0.31263824  0.39431010     0.80400
C273        C  0.25097209  0.24989264  0.49499742     0.79500
Zn274      Zn  0.27129618  0.23114892  0.10994107     1.49700
Zn275      Zn  0.27252377  0.27019854  0.17291358     1.49400
Zn276      Zn  0.23434011  0.27013081  0.10813086     1.49100
Zn277      Zn  0.23289243  0.23247344  0.17322123     1.49500
O278        O  0.25281217  0.25102417  0.14120513    -1.81800
O279        O  0.30440546  0.23614341  0.12087253    -0.72400
O280        O  0.26668345  0.30355932  0.16307456    -0.72300
O281        O  0.24034709  0.26399034  0.05328616    -0.71800
O282        O  0.30590281  0.26361782  0.16326887    -0.72500
O283        O  0.26598968  0.23647816  0.05421415    -0.72100
O284        O  0.24072391  0.30313981  0.11773991    -0.72600
O285        O  0.19989782  0.23888580  0.16215430    -0.72000
O286        O  0.26650640  0.26453078  0.22814552    -0.72800
O287        O  0.20097565  0.26474164  0.11681092    -0.72200
O288        O  0.23880664  0.23876325  0.22815411    -0.72600
O289        O  0.23796665  0.19896694  0.16489776    -0.72600
O290        O  0.26447239  0.19829000  0.12091739    -0.72300
C291        C  0.31575339  0.24929347  0.14215545     0.79400
C292        C  0.25363816  0.31393027  0.14019619     0.79900
C293        C  0.25315451  0.25009936  0.03624003     0.78900
C294        C  0.18976638  0.25196080  0.13902679     0.79300
C295        C  0.25262537  0.25165762  0.24559641     0.80400
C296        C  0.25105042  0.18795630  0.14323064     0.79500
C297        C  0.12798739  0.23814540  0.16052212     0.15000
C298        C  0.11655289  0.25525299  0.14053388     0.01900
C299        C  0.12914377  0.27057235  0.11848993     0.16900
C300        C  0.15284028  0.26925911  0.11730014     0.26300
C301        C  0.16449297  0.25254408  0.13830535    -0.40000
C302        C  0.15164985  0.23672186  0.15935531     0.33400
C303        C  0.09164671  0.25774247  0.14447567     0.02000
F304        F  0.11845862  0.28693382  0.09819830    -0.12300
F305        F  0.16189349  0.21991430  0.17926032    -0.12800
C306        C  0.08252436  0.27789491  0.15899131     0.16900
C307        C  0.05933378  0.27937550  0.16683176     0.26300
C308        C  0.04491267  0.26083280  0.15999605    -0.39900
C309        C  0.05380195  0.24103484  0.14408874     0.33300
C310        C  0.07701157  0.23948716  0.13638831     0.15000
F311        F  0.09625260  0.29573763  0.16733910    -0.12300
F312        F  0.04024315  0.22273280  0.13805389    -0.12800
F313        F  0.05098083  0.29877322  0.18175096    -0.15100
F314        F  0.08531633  0.21995443  0.12189309    -0.13700
F315        F  0.11626251  0.22323453  0.18237718    -0.13700
F316        F  0.16428858  0.28471768  0.09610951    -0.15100
C317        C  0.12639663  0.25042462  0.41529207     0.15000
C318        C  0.11575384  0.24525819  0.38099041     0.01900
C319        C  0.12922755  0.24187587  0.34896000     0.16900
C320        C  0.15287001  0.24302535  0.35131707     0.26300
C321        C  0.16360860  0.24795160  0.38567905    -0.40000
C322        C  0.15011646  0.25188634  0.41758936     0.33400
C323        C  0.09068323  0.24308241  0.37825352     0.02000
F324        F  0.11943830  0.23774213  0.31510805    -0.12300
F325        F  0.15988850  0.25635428  0.45131597    -0.12800
C326        C  0.07641645  0.26115818  0.38834378     0.16900
C327        C  0.05294108  0.25968065  0.38226877     0.26300
C328        C  0.04350801  0.24025889  0.36556585    -0.39900
C329        C  0.05763030  0.22196504  0.35664591     0.33300
C330        C  0.08095413  0.22323763  0.36333444     0.15000
F331        F  0.08534118  0.28071902  0.40202667    -0.12300
F332        F  0.04880470  0.20295240  0.34084016    -0.12800
F333        F  0.03966346  0.27776754  0.39038734    -0.15100
F334        F  0.09415145  0.20520056  0.35455711    -0.13700
F335        F  0.11385612  0.25340379  0.44681535    -0.13700
F336        F  0.16524372  0.23977525  0.31967142    -0.15100
C337        C  0.01097423  0.27031059  0.04881027     0.15000
C338        C  0.00195053  0.25065062  0.03208634     0.01900
C339        C  0.99306754  0.23333289  0.05526128     0.16900
C340        C  0.99339190  0.23560422  0.09433907     0.26300
C341        C  0.00221986  0.25532657  0.11083949    -0.40000
C342        C  0.01091033  0.27268720  0.08783206     0.33400
C343        C  0.00114480  0.24874475  0.49473388     0.02000
F344        F  0.98388428  0.21430644  0.04006502    -0.12300
F345        F  0.01912573  0.29205605  0.10327459    -0.12800
C346        C  0.01137007  0.23002908  0.47733709     0.16900
C347        C  0.01122804  0.22809020  0.43820160     0.26300
C348        C  0.00107899  0.24491950  0.41572052    -0.39900
C349        C  0.99087427  0.26362891  0.43304399     0.33300
C350        C  0.99085582  0.26551062  0.47221854     0.15000
F351        F  0.02176431  0.21376406  0.49824946    -0.12300
F352        F  0.98121291  0.28022560  0.41193780    -0.12800
F353        F  0.02055450  0.20949554  0.42218470    -0.15100
F354        F  0.98052453  0.28357783  0.48823982    -0.13700
F355        F  0.02026628  0.28704492  0.02737650    -0.13700
F356        F  0.98562723  0.21832795  0.11620325    -0.15100
C357        C  0.23643501  0.07500272  0.14491943     0.15000
C358        C  0.25413785  0.08993914  0.15475395     0.01900
C359        C  0.27357063  0.08128325  0.17263760     0.16900
C360        C  0.27499671  0.05824920  0.18160614     0.26300
C361        C  0.25714980  0.04340543  0.17251898    -0.40000
C362        C  0.23794968  0.05185180  0.15371100     0.33400
C363        C  0.25201396  0.11473057  0.14868700     0.02000
F364        F  0.29077055  0.09534879  0.18294743    -0.12300
F365        F  0.22017749  0.03795241  0.14572906    -0.12800
C366        C  0.23459657  0.12687246  0.16630613     0.16900
C367        C  0.23402610  0.15058505  0.16416776     0.26300
C368        C  0.25090572  0.16268177  0.14419064    -0.39900
C369        C  0.26797331  0.15028494  0.12564226     0.33300
C370        C  0.26846110  0.12660522  0.12787879     0.15000
F371        F  0.21860518  0.11580060  0.18691754    -0.12300
F372        F  0.28467297  0.16099877  0.10609967    -0.12800
F373        F  0.21705839  0.16161106  0.18213638    -0.15100
F374        F  0.28525263  0.11521995  0.11005983    -0.13700
F375        F  0.21754571  0.08292568  0.12743024    -0.13700
F376        F  0.29370509  0.05044440  0.19977726    -0.15100
C377        C  0.25187160  0.12449404  0.42103699     0.15000
C378        C  0.24635138  0.11379898  0.38705444     0.01900
C379        C  0.24441833  0.12687654  0.35417683     0.16900
C380        C  0.24694489  0.15040888  0.35539162     0.26300
C381        C  0.25142523  0.16140919  0.38962410    -0.40000
C382        C  0.25444320  0.14816138  0.42235464     0.33400
C383        C  0.24187997  0.08911296  0.38543052     0.02000
F384        F  0.23999230  0.11677095  0.32076005    -0.12300
F385        F  0.25891468  0.15813351  0.45585590    -0.12800
C386        C  0.22016483  0.08123998  0.37538561     0.16900
C387        C  0.21643500  0.05818634  0.36864583     0.26300
C388        C  0.23426971  0.04263302  0.37244203    -0.39900
C389        C  0.25576534  0.05032614  0.38399203     0.33300
C390        C  0.25957051  0.07346780  0.39038131     0.15000
F391        F  0.20275727  0.09605386  0.37098017    -0.12300
F392        F  0.27342498  0.03566858  0.38643296    -0.12800
F393        F  0.19555390  0.05108112  0.35745787    -0.15100
F394        F  0.28080513  0.08078249  0.39907626    -0.13700
F395        F  0.25394823  0.11210189  0.45310515    -0.13700
F396        F  0.24514066  0.16243673  0.32289239    -0.15100
C397        C  0.22571497  0.00931581  0.48387589     0.15000
C398        C  0.24535388  0.99946274  0.49946748     0.01900
C399        C  0.26136329  0.98962368  0.47513737     0.16900
C400        C  0.25782721  0.98977779  0.43616304     0.26300
C401        C  0.23817168  0.99954462  0.42085762    -0.40000
C402        C  0.22211662  0.00919463  0.44503693     0.33400
C403        C  0.24901759  0.99771853  0.04550753     0.02000
F404        F  0.28027959  0.97956070  0.48912358    -0.12300
F405        F  0.20270523  0.01818612  0.43091529    -0.12800
C406        C  0.23256192  0.98753383  0.06880976     0.16900
C407        C  0.23458159  0.98870056  0.10795148     0.26300
C408        C  0.25315682  0.99990129  0.12445351    -0.39900
C409        C  0.26963400  0.00998491  0.10119087     0.33300
C410        C  0.26757324  0.00893903  0.06207840     0.15000
F411        F  0.21457721  0.97638407  0.05361476    -0.12300
F412        F  0.28791794  0.02056610  0.11644387    -0.12800
F413        F  0.21813959  0.97936264  0.12982388    -0.15100
F414        F  0.28346200  0.01931687  0.04032380    -0.13700
F415        F  0.21013224  0.01942701  0.50622114    -0.13700
F416        F  0.27375984  0.98077367  0.41324127    -0.15100
C417        C  0.42220657  0.23909883  0.43562055     0.15000
C418        C  0.41246871  0.25109035  0.40542518     0.01900
C419        C  0.42651036  0.26473283  0.38257124     0.16900
C420        C  0.44968512  0.26694954  0.39056166     0.26300
C421        C  0.45933540  0.25503230  0.42090187    -0.40000
C422        C  0.44541036  0.24095361  0.44311582     0.33400
C423        C  0.38752510  0.25043457  0.39939385     0.02000
F424        F  0.41770679  0.27615053  0.35273838    -0.12300
F425        F  0.45429098  0.22906671  0.47239183    -0.12800
C426        C  0.37503464  0.27072941  0.39847254     0.16900
C427        C  0.35141950  0.27021053  0.39483582     0.26300
C428        C  0.33976268  0.24938599  0.39332779    -0.39900
C429        C  0.35216939  0.22907476  0.39407506     0.33300
C430        C  0.37588765  0.22960004  0.39647760     0.15000
F431        F  0.38560448  0.29107308  0.40273580    -0.12300
F432        F  0.34133377  0.20874288  0.39191461    -0.12800
F433        F  0.33983142  0.29008271  0.39466296    -0.15100
F434        F  0.38750666  0.20975719  0.39587296    -0.13700
F435        F  0.40910311  0.22623504  0.45882305    -0.13700
F436        F  0.46238231  0.28155438  0.36971418    -0.15100
C437        C  0.42494763  0.25505788  0.10675558     0.15000
C438        C  0.41368054  0.24224914  0.13445490     0.01900
C439        C  0.42595667  0.22607571  0.15533613     0.16900
C440        C  0.44888439  0.22208031  0.14751582     0.26300
C441        C  0.45990171  0.23433194  0.11883830    -0.40000
C442        C  0.44783823  0.25109284  0.09897414     0.33400
C443        C  0.38872705  0.24410021  0.13878612     0.02000
F444        F  0.41552757  0.21376916  0.18269867    -0.12300
F445        F  0.45824172  0.26352392  0.07172790    -0.12800
C446        C  0.37493130  0.22524050  0.13090709     0.16900
C447        C  0.35132360  0.22691758  0.13256734     0.26300
C448        C  0.34089843  0.24756448  0.14217841    -0.39900
C449        C  0.35476335  0.26639196  0.15080631     0.33300
C450        C  0.37848452  0.26469537  0.14885382     0.15000
F451        F  0.38435769  0.20527219  0.12040718    -0.12300
F452        F  0.34539812  0.28663101  0.15993566    -0.12800
F453        F  0.33867574  0.20818423  0.12491882    -0.15100
F454        F  0.39146585  0.28317366  0.15663441    -0.13700
F455        F  0.41350754  0.27067949  0.08601391    -0.13700
F456        F  0.45996509  0.20552627  0.16672300    -0.15100
C457        C  0.51106437  0.22087759  0.23448701     0.15000
C458        C  0.50034319  0.24012872  0.24920456     0.01900
C459        C  0.49053552  0.25598866  0.22452435     0.16900
C460        C  0.49158723  0.25275899  0.18572435     0.26300
C461        C  0.50204799  0.23337252  0.17092643    -0.40000
C462        C  0.51188986  0.21751164  0.19563938     0.33400
C463        C  0.50028194  0.24422070  0.29016921     0.02000
F464        F  0.47982031  0.27456804  0.23808751    -0.12300
F465        F  0.52193462  0.19856250  0.18213185    -0.12800
C466        C  0.51112601  0.26355682  0.30468671     0.16900
C467        C  0.51149481  0.26741600  0.34334366     0.26300
C468        C  0.50114603  0.25194208  0.36817317    -0.39900
C469        C  0.49017921  0.23264904  0.35369191     0.33300
C470        C  0.48968900  0.22883733  0.31493303     0.15000
F471        F  0.52162172  0.27856280  0.28135814    -0.12300
F472        F  0.48031403  0.21734345  0.37720157    -0.12800
F473        F  0.52158425  0.28650805  0.35658716    -0.15100
F474        F  0.47868684  0.21028073  0.30151588    -0.13700
F475        F  0.52103905  0.20554043  0.25776285    -0.13700
F476        F  0.48276389  0.26879147  0.16251203    -0.15100
C477        C  0.62666150  0.23996695  0.16889446     0.15000
C478        C  0.61656261  0.23497406  0.13406777     0.01900
C479        C  0.63038246  0.23357655  0.10201061     0.16900
C480        C  0.65386137  0.23671708  0.10480526     0.26300
C481        C  0.66404162  0.24158040  0.13968529    -0.40000
C482        C  0.65016150  0.24337857  0.17166267     0.33400
C483        C  0.59163816  0.23145871  0.13092017     0.02000
F484        F  0.62107709  0.22959101  0.06774309    -0.12300
F485        F  0.65940064  0.24768205  0.20585173    -0.12800
C486        C  0.57650112  0.24847061  0.14234513     0.16900
C487        C  0.55308918  0.24581737  0.13698323     0.26300
C488        C  0.54439461  0.22610099  0.12007947    -0.39900
C489        C  0.55948024  0.20886395  0.10947241     0.33300
C490        C  0.58286349  0.21145775  0.11500905     0.15000
F491        F  0.58448448  0.26822082  0.15681851    -0.12300
F492        F  0.55155289  0.18959952  0.09321767    -0.12800
F493        F  0.53912276  0.26321085  0.14592953    -0.15100
F494        F  0.59699171  0.19450653  0.10446121    -0.13700
F495        F  0.61380804  0.24098578  0.20043813    -0.13700
F496        F  0.66658706  0.23551216  0.07311657    -0.15100
C497        C  0.87645110  0.25776583  0.11690043     0.15000
C498        C  0.88814272  0.25568906  0.15115046     0.01900
C499        C  0.87571948  0.25373474  0.18468249     0.16900
C500        C  0.85200176  0.25313057  0.18395436     0.26300
C501        C  0.84021976  0.25482306  0.14967054    -0.40000
C502        C  0.85266576  0.25742726  0.11615870     0.33400
C503        C  0.91327247  0.25512324  0.15234446     0.02000
F504        F  0.88663354  0.25266658  0.21826839    -0.12300
F505        F  0.84182741  0.25878636  0.08254825    -0.12800
C506        C  0.92620493  0.27398214  0.14061228     0.16900
C507        C  0.94978399  0.27419671  0.14574517     0.26300
C508        C  0.96060351  0.25570849  0.16301071    -0.39900
C509        C  0.94785014  0.23654091  0.17339616     0.33300
C510        C  0.92437844  0.23614488  0.16773139     0.15000
F511        F  0.91586919  0.29265922  0.12623786    -0.12300
F512        F  0.95810791  0.21842049  0.18978805    -0.12800
F513        F  0.96189175  0.29297154  0.13601021    -0.15100
F514        F  0.91234709  0.21743699  0.17808544    -0.13700
F515        F  0.88807786  0.25946198  0.08411305    -0.13700
F516        F  0.84054295  0.25137453  0.21690025    -0.15100
C517        C  0.58253533  0.27406862  0.41885206     0.15000
C518        C  0.59083746  0.25477237  0.40068314     0.01900
C519        C  0.57569445  0.23756920  0.38974811     0.16900
C520        C  0.55250364  0.23942728  0.39777247     0.26300
C521        C  0.54424977  0.25853060  0.41692671    -0.40000
C522        C  0.55946596  0.27590700  0.42703418     0.33400
C523        C  0.61555410  0.25205561  0.39620595     0.02000
F524        F  0.58349265  0.21875624  0.37220940    -0.12300
F525        F  0.55201504  0.29456432  0.44541632    -0.12800
C526        C  0.62738236  0.23722102  0.42000575     0.16900
C527        C  0.65108582  0.23668512  0.41956596     0.26300
C528        C  0.66348087  0.25102295  0.39506934    -0.39900
C529        C  0.65135699  0.26535357  0.37027275     0.33300
C530        C  0.62762844  0.26588754  0.37103144     0.15000
F531        F  0.61594823  0.22391339  0.44489171    -0.12300
F532        F  0.66234514  0.27917758  0.34561681    -0.12800
F533        F  0.66178261  0.22248498  0.44391303    -0.15100
F534        F  0.61638180  0.28021725  0.34759839    -0.13700
F535        F  0.59699772  0.29070471  0.43010596    -0.13700
F536        F  0.53843451  0.22198537  0.38881275    -0.15100
C537        C  0.87406817  0.22881626  0.37984741     0.15000
C538        C  0.88695629  0.24880099  0.38349019     0.01900
C539        C  0.87583534  0.26929894  0.39147966     0.16900
C540        C  0.85220608  0.26978801  0.39556552     0.26300
C541        C  0.83933171  0.24976680  0.39164797    -0.40000
C542        C  0.85052469  0.22928093  0.38398374     0.33400
C543        C  0.91184499  0.24827756  0.37751075     0.02000
F544        F  0.88787001  0.28885962  0.39522122    -0.12300
F545        F  0.83865463  0.20958640  0.38071276    -0.12800
C546        C  0.92180371  0.26195394  0.34956408     0.16900
C547        C  0.94504456  0.26058031  0.34235046     0.26300
C548        C  0.95877180  0.24535337  0.36266838    -0.39900
C549        C  0.94884682  0.23166565  0.39066190     0.33300
C550        C  0.92560738  0.23328110  0.39826458     0.15000
F551        F  0.90885911  0.27600985  0.32817405    -0.12300
F552        F  0.96132229  0.21590132  0.40929893    -0.12800
F553        F  0.95413554  0.27399053  0.31507740    -0.15100
F554        F  0.91644338  0.21992891  0.42553628    -0.13700
F555        F  0.88421817  0.20888868  0.37115059    -0.13700
F556        F  0.84187809  0.28995361  0.40197212    -0.15100
C557        C  0.78178694  0.07855232  0.16186578     0.15000
C558        C  0.76114777  0.08929059  0.15336025     0.01900
C559        C  0.74135424  0.07610720  0.14928867     0.16900
C560        C  0.74209881  0.05256759  0.15467583     0.26300
C561        C  0.76260146  0.04200247  0.16437934    -0.40000
C562        C  0.78244988  0.05510693  0.16773441     0.33400
C563        C  0.76000597  0.11433918  0.15142125     0.02000
F564        F  0.72112139  0.08619755  0.14211562    -0.12300
F565        F  0.80242772  0.04515690  0.17714143    -0.12800
C566        C  0.75307760  0.12540319  0.11835529     0.16900
C567        C  0.75170747  0.14910403  0.11702980     0.26300
C568        C  0.75729666  0.16215416  0.14885131    -0.39900
C569        C  0.76411561  0.15091527  0.18200131     0.33300
C570        C  0.76548007  0.12726849  0.18319901     0.15000
F571        F  0.74798632  0.11324127  0.08716230    -0.12300
F572        F  0.76885568  0.16273248  0.21371125    -0.12800
F573        F  0.74531370  0.15924405  0.08437590    -0.15100
F574        F  0.77164692  0.11690764  0.21579002    -0.13700
F575        F  0.80121159  0.09087437  0.16511537    -0.13700
F576        F  0.72259342  0.04028554  0.15274610    -0.15100
C577        C  0.72459176  0.08111108  0.36653057     0.15000
C578        C  0.74379920  0.08958773  0.38536817     0.01900
C579        C  0.76136051  0.07462375  0.39531570     0.16900
C580        C  0.76015308  0.05173494  0.38527408     0.26300
C581        C  0.74130451  0.04345670  0.36528209    -0.40000
C582        C  0.72342578  0.05824707  0.35638539     0.33400
C583        C  0.74639041  0.11430903  0.39147024     0.02000
F584        F  0.77994412  0.08234991  0.41395589    -0.12300
F585        F  0.70494969  0.05056898  0.33740018    -0.12800
C586        C  0.73041751  0.12639520  0.41254574     0.16900
C587        C  0.73202651  0.15002840  0.41556243     0.26300
C588        C  0.74965975  0.16207839  0.39730887    -0.39900
C589        C  0.76611787  0.14968421  0.37739492     0.33300
C590        C  0.76438979  0.12611466  0.37436905     0.15000
F591        F  0.71311014  0.11530075  0.42995733    -0.12300
F592        F  0.78384036  0.16030534  0.36034117    -0.12800
F593        F  0.71592257  0.16106114  0.43557369    -0.15100
F594        F  0.77988686  0.11486548  0.35339248    -0.13700
F595        F  0.70744071  0.09520406  0.35639520    -0.13700
F596        F  0.77796421  0.03798385  0.39323586    -0.15100
C597        C  0.72967509  0.00981622  0.47408351     0.15000
C598        C  0.74872345  0.00044150  0.49210645     0.01900
C599        C  0.76612983  0.99098564  0.47018804     0.16900
C600        C  0.76452733  0.99096942  0.43095317     0.26300
C601        C  0.74550227  0.00036219  0.41305231    -0.40000
C602        C  0.72807307  0.00971822  0.43491252     0.33400
C603        C  0.74730294  0.00038085  0.03379074     0.02000
F604        F  0.78458839  0.98156264  0.48686669    -0.12300
F605        F  0.70929323  0.01841256  0.41816058    -0.12800
C606        C  0.73176521  0.98946175  0.05792516     0.16900
C607        C  0.73507989  0.98976068  0.09696210     0.26300
C608        C  0.75413108  0.00071200  0.11253440    -0.39900
C609        C  0.76941666  0.01192253  0.08839556     0.33300
C610        C  0.76590466  0.01197426  0.04953089     0.15000
F611        F  0.71370745  0.97800119  0.04364625    -0.12300
F612        F  0.78830480  0.02208423  0.10232217    -0.12800
F613        F  0.71966993  0.97938748  0.11961328    -0.15100
F614        F  0.78078135  0.02333127  0.02714006    -0.13700
F615        F  0.71278935  0.01939673  0.49439348    -0.13700
F616        F  0.78172247  0.98223797  0.41034703    -0.15100
C617        C  0.74761131  0.37575725  0.37270758     0.15000
C618        C  0.75595341  0.38631642  0.40514772     0.01900
C619        C  0.76326963  0.37295807  0.43553223     0.16900
C620        C  0.76223199  0.34933238  0.43364293     0.26300
C621        C  0.75374650  0.33854204  0.40121965    -0.40000
C622        C  0.74638864  0.35206378  0.37077066     0.33400
C623        C  0.75634195  0.41127820  0.40821204     0.02000
F624        F  0.77149793  0.38286975  0.46713176    -0.12300
F625        F  0.73825754  0.34242026  0.33891234    -0.12800
C626        C  0.74318692  0.42183429  0.43581753     0.16900
C627        C  0.74479841  0.44517622  0.44126147     0.26300
C628        C  0.75953895  0.45839447  0.41912778    -0.39900
C629        C  0.77231393  0.44797934  0.39077039     0.33300
C630        C  0.77065701  0.42450941  0.38526562     0.15000
F631        F  0.72902848  0.40940588  0.45794386    -0.12300
F632        F  0.78734264  0.46022573  0.37001348    -0.12800
F633        F  0.73216105  0.45489947  0.46861563    -0.15100
F634        F  0.78384842  0.41452816  0.35891232    -0.13700
F635        F  0.74023334  0.38843369  0.34320587    -0.13700
F636        F  0.76914453  0.33709653  0.46397150    -0.15100
C637        C  0.72327913  0.37108293  0.13342480     0.15000
C638        C  0.74286592  0.38463770  0.13720723     0.01900
C639        C  0.76361021  0.37424469  0.14639329     0.16900
C640        C  0.76497893  0.35065957  0.14995729     0.26300
C641        C  0.74552738  0.33711118  0.14528245    -0.40000
C642        C  0.72456616  0.34750946  0.13787653     0.33400
C643        C  0.74202558  0.40937943  0.12948406     0.02000
F644        F  0.78260216  0.38697544  0.15164949    -0.12300
F645        F  0.70558267  0.33472626  0.13288524    -0.12800
C646        C  0.72678257  0.42345215  0.14873168     0.16900
C647        C  0.72574455  0.44667646  0.14041896     0.26300
C648        C  0.74021403  0.45625242  0.11320625    -0.39900
C649        C  0.75543050  0.44217262  0.09400559     0.33300
C650        C  0.75625956  0.41896055  0.10192954     0.24600
F651        F  0.71282547  0.41468636  0.17546524    -0.12300
F652        F  0.76947536  0.45091356  0.06735535    -0.12800
F653        F  0.70985846  0.45952672  0.15767286    -0.15100
F654        F  0.77053703  0.40568809  0.08185436    -0.13700
F655        F  0.70312940  0.38053776  0.12363386    -0.13700
F656        F  0.78529534  0.34102846  0.15819914    -0.15100
C657        C  0.72635029  0.50473498  0.22870289     0.15000
C658        C  0.74648827  0.49662113  0.24525061     0.01900
C659        C  0.76388850  0.48854551  0.22178718     0.16900
C660        C  0.76139489  0.48909985  0.18266428     0.26300
C661        C  0.74151679  0.49772487  0.16630827    -0.40000
C662        C  0.72396111  0.50536200  0.18956682     0.33400
C663        C  0.74982255  0.49761322  0.28669622     0.02000
F664        F  0.78329709  0.48005795  0.23680436    -0.12300
F665        F  0.70433399  0.51304394  0.17419863    -0.12800
C666        C  0.73424177  0.48733049  0.31155255     0.16900
C667        C  0.73747618  0.48871614  0.35053017     0.26300
C668        C  0.75652860  0.50004958  0.36530998    -0.39900
C669        C  0.77203555  0.51029632  0.34049015     0.33300
C670        C  0.76863566  0.50926380  0.30166136     0.15000
F671        F  0.71612025  0.47560144  0.29808813    -0.12300
F672        F  0.79088124  0.52080145  0.35391316    -0.12800
F673        F  0.72191076  0.47919168  0.37389302    -0.15100
F674        F  0.78367135  0.51988560  0.27860123    -0.13700
F675        F  0.70920442  0.51259437  0.25039369    -0.13700
F676        F  0.77858673  0.48174230  0.16059856    -0.15100
C677        C  0.75958878  0.62452431  0.11538252     0.15000
C678        C  0.74270428  0.61283768  0.13550673     0.01900
C679        C  0.72733583  0.62520281  0.15736069     0.16900
C680        C  0.72851628  0.64894543  0.15850183     0.26300
C681        C  0.74519502  0.66085908  0.13770536    -0.40000
C682        C  0.76089427  0.64821609  0.11649302     0.33400
C683        C  0.74024685  0.58791334  0.13150847     0.02000
F684        F  0.71104944  0.61422604  0.17746887    -0.12300
F685        F  0.77750468  0.65868919  0.09640170    -0.12800
C686        C  0.75796137  0.57321723  0.14193798     0.16900
C687        C  0.75626659  0.54989156  0.13487094     0.26300
C688        C  0.73687841  0.54099431  0.11712384    -0.39900
C689        C  0.71902958  0.55563200  0.10739804     0.33300
C690        C  0.72063667  0.57886062  0.11470329     0.15000
F691        F  0.77712011  0.58156940  0.15808055    -0.12300
F692        F  0.70023548  0.54745850  0.08988445    -0.12800
F693        F  0.77413027  0.53627449  0.14315693    -0.15100
F694        F  0.70350883  0.59271963  0.10360702    -0.13700
F695        F  0.77439528  0.61299710  0.09348366    -0.13700
F696        F  0.71298124  0.66017546  0.17941158    -0.15100
C697        C  0.77383173  0.87251965  0.15048042     0.15000
C698        C  0.75469998  0.88560583  0.14153809     0.01900
C699        C  0.73488592  0.87471913  0.12892395     0.16900
C700        C  0.73400842  0.85103589  0.12608389     0.26300
C701        C  0.75288647  0.83774228  0.13646040    -0.40000
C702        C  0.77295097  0.84883557  0.14806009     0.33400
C703        C  0.75494758  0.91044009  0.14776787     0.02000
F704        F  0.71626310  0.88708124  0.11977371    -0.12300
F705        F  0.79180741  0.83678880  0.15704985    -0.12800
C706        C  0.76964123  0.92472925  0.12732162     0.16900
C707        C  0.77056658  0.94803525  0.13492413     0.26300
C708        C  0.75687707  0.95730680  0.16321178    -0.39900
C709        C  0.74210699  0.94298643  0.18343438     0.33300
C710        C  0.74107303  0.91979593  0.17566193     0.15000
F711        F  0.78334969  0.91601497  0.10046313    -0.12300
F712        F  0.72889993  0.95145303  0.21121721    -0.12800
F713        F  0.78569582  0.96126621  0.11611158    -0.15100
F714        F  0.72716148  0.90626853  0.19642458    -0.13700
F715        F  0.79316136  0.88265807  0.16285457    -0.13700
F716        F  0.71439884  0.84114755  0.11439601    -0.15100
C717        C  0.74079761  0.57470347  0.39195516     0.15000
C718        C  0.75868204  0.58981195  0.40017165     0.01900
C719        C  0.77906844  0.58119721  0.41494412     0.16900
C720        C  0.78140531  0.55800603  0.42192466     0.26300
C721        C  0.76342671  0.54299737  0.41436644    -0.40000
C722        C  0.74313538  0.55145302  0.39913108     0.33400
C723        C  0.75589345  0.61461856  0.39497224     0.02000
F724        F  0.79641095  0.59536883  0.42415464    -0.12300
F725        F  0.72517083  0.53742376  0.39317243    -0.12800
C726        C  0.73796768  0.62602720  0.41256033     0.16900
C727        C  0.73599408  0.64957465  0.40936637     0.26300
C728        C  0.75220138  0.66234635  0.38899937    -0.39900
C729        C  0.77005169  0.65077589  0.37113103     0.33300
C730        C  0.77175036  0.62717721  0.37390217     0.15000
F731        F  0.72275048  0.61445816  0.43402637    -0.12300
F732        F  0.78625959  0.66224374  0.35161883    -0.12800
F733        F  0.71826488  0.65978787  0.42666176    -0.15100
F734        F  0.78903549  0.61656095  0.35607622    -0.13700
F735        F  0.72094906  0.58251674  0.37752584    -0.13700
F736        F  0.80115656  0.55019506  0.43673653    -0.15100
C737        C  0.72738991  0.87387876  0.36300648     0.15000
C738        C  0.74669431  0.88622045  0.37395744     0.01900
C739        C  0.76557069  0.87463871  0.38830629     0.16900
C740        C  0.76517308  0.85098139  0.39186408     0.26300
C741        C  0.74591009  0.83840723  0.38066046    -0.40000
C742        C  0.72699514  0.85017879  0.36612672     0.33400
C743        C  0.74726530  0.91117305  0.36958629     0.02000
F744        F  0.78442602  0.88629742  0.39887313    -0.12300
F745        F  0.70800422  0.83883444  0.35525734    -0.12800
C746        C  0.73443113  0.92498506  0.39339953     0.16900
C747        C  0.73358512  0.94848562  0.38747461     0.26300
C748        C  0.74611526  0.95863129  0.35813625    -0.39900
C749        C  0.75953319  0.94468278  0.33507154     0.33300
C750        C  0.75994095  0.92117662  0.34057613     0.15000
F751        F  0.72228031  0.91557846  0.42189871    -0.12300
F752        F  0.77205005  0.95378802  0.30672048    -0.12800
F753        F  0.71937196  0.96092596  0.40894669    -0.15100
F754        F  0.77212789  0.90806187  0.31679264    -0.13700
F755        F  0.70904471  0.88482012  0.34869201    -0.13700
F756        F  0.78393716  0.84037518  0.40531599    -0.15100
C757        C  0.57809856  0.73646525  0.43725956     0.15000
C758        C  0.58729270  0.74878306  0.40686442     0.01900
C759        C  0.57306960  0.76357094  0.38654412     0.16900
C760        C  0.55057194  0.76697272  0.39764431     0.26300
C761        C  0.54143903  0.75483579  0.42824214    -0.40000
C762        C  0.55538213  0.73938037  0.44768193     0.33400
C763        C  0.61209592  0.74805073  0.39882771     0.02000
F764        F  0.58116492  0.77521174  0.35636766    -0.12300
F765        F  0.54707083  0.72729732  0.47722553    -0.12800
C766        C  0.62352070  0.72732454  0.39377646     0.16900
C767        C  0.64719626  0.72696885  0.38936252     0.26300
C768        C  0.65972729  0.74734896  0.38905561    -0.39900
C769        C  0.64822464  0.76802201  0.39264622     0.33300
C770        C  0.62475102  0.76836861  0.39800585     0.15000
F771        F  0.61177189  0.70746010  0.39302684    -0.12300
F772        F  0.65992183  0.78791978  0.39304119    -0.12800
F773        F  0.65785045  0.70677456  0.38492165    -0.15100
F774        F  0.61452786  0.78860772  0.40416711    -0.13700
F775        F  0.59136212  0.72237463  0.45802026    -0.13700
F776        F  0.53821323  0.78310750  0.37971948    -0.15100
C777        C  0.62519482  0.74623431  0.16969492     0.15000
C778        C  0.61305067  0.75113418  0.13673555     0.01900
C779        C  0.62496444  0.75589276  0.10343118     0.16900
C780        C  0.64868963  0.75602099  0.10312519     0.26300
C781        C  0.66096188  0.75118036  0.13612976    -0.40000
C782        C  0.64894292  0.74621541  0.16942814     0.33400
C783        C  0.58794725  0.75130601  0.13666170     0.02000
F784        F  0.61354515  0.75995933  0.07093743    -0.12300
F785        F  0.66016012  0.74187150  0.20200950    -0.12800
C786        C  0.57630372  0.77114596  0.12633004     0.16900
C787        C  0.55279709  0.77069082  0.12130631     0.26300
C788        C  0.54055135  0.75057078  0.12754455    -0.39900
C789        C  0.55195064  0.73100027  0.13967428     0.33300
C790        C  0.57556593  0.73133012  0.14414291     0.15000
F791        F  0.58784176  0.79079969  0.12012452    -0.12300
F792        F  0.54036511  0.71127633  0.14492332    -0.12800
F793        F  0.54202938  0.78969959  0.10918367    -0.15100
F794        F  0.58647194  0.71186661  0.15360641    -0.13700
F795        F  0.61404061  0.74189546  0.20230401    -0.13700
F796        F  0.65961282  0.76023329  0.07025956    -0.15100
C797        C  0.50965568  0.76913711  0.23751940     0.15000
C798        C  0.49975095  0.75156600  0.25893457     0.01900
C799        C  0.48989945  0.73297127  0.24029191     0.16900
C800        C  0.48971041  0.73213587  0.20105033     0.26300
C801        C  0.49891974  0.75004340  0.17975289    -0.40000
C802        C  0.50897120  0.76850520  0.19828745     0.33400
C803        C  0.49907081  0.75302997  0.30052818     0.02000
F804        F  0.48000976  0.71583304  0.26004398    -0.12300
F805        F  0.51763027  0.78619560  0.17838265    -0.12800
C806        C  0.48997876  0.77236741  0.31789010     0.16900
C807        C  0.48956825  0.77402839  0.35697764     0.26300
C808        C  0.49801488  0.75633923  0.37942750    -0.39900
C809        C  0.50671913  0.73683197  0.36230782     0.33300
C810        C  0.50737838  0.73521566  0.32314712     0.15000
F811        F  0.48141341  0.78966440  0.29697009    -0.12300
F812        F  0.51456416  0.71939490  0.38366062    -0.12800
F813        F  0.48176224  0.79330722  0.37303242    -0.15100
F814        F  0.51663400  0.71650241  0.30735441    -0.13700
F815        F  0.52009697  0.78688889  0.25462856    -0.13700
F816        F  0.48079480  0.71368275  0.18373668    -0.15100
C817        C  0.41907655  0.72735565  0.12584469     0.15000
C818        C  0.40866785  0.74706096  0.13955961     0.01900
C819        C  0.42232585  0.76573605  0.14963130     0.16900
C820        C  0.44591850  0.76494811  0.14473867     0.26300
C821        C  0.45605766  0.74563352  0.12919698    -0.40000
C822        C  0.44252300  0.72674759  0.12038121     0.33400
C823        C  0.38355335  0.74830441  0.14167716     0.02000
F824        F  0.41270342  0.78516803  0.16214881    -0.12300
F825        F  0.45204328  0.70782305  0.10573141    -0.12800
C826        C  0.37265659  0.75324655  0.17572388     0.16900
C827        C  0.34893569  0.75375589  0.17768644     0.26300
C828        C  0.33567978  0.74914788  0.14566230    -0.39900
C829        C  0.34663457  0.74441137  0.11151088     0.33300
C830        C  0.37031297  0.74414380  0.10950855     0.15000
F831        F  0.38498152  0.75697862  0.20734894    -0.12300
F832        F  0.33444503  0.74057735  0.07974482    -0.12800
F833        F  0.33894666  0.75806467  0.21121445    -0.15100
F834        F  0.38034903  0.74015093  0.07589286    -0.13700
F835        F  0.40643603  0.70880276  0.11707318    -0.13700
F836        F  0.45864299  0.78355941  0.15277936    -0.15100
C837        C  0.23560336  0.87660863  0.13872279     0.15000
C838        C  0.25351113  0.88712226  0.15806000     0.01900
C839        C  0.27081901  0.87376971  0.17354223     0.16900
C840        C  0.27005911  0.85014127  0.17046561     0.26300
C841        C  0.25185502  0.83931854  0.15176001    -0.40000
C842        C  0.23480050  0.85294423  0.13537032     0.33400
C843        C  0.25357103  0.91191908  0.16399542     0.02000
F844        F  0.28814006  0.88362661  0.19275759    -0.12300
F845        F  0.21698366  0.84344518  0.11694173    -0.12800
C846        C  0.23775749  0.92159322  0.18854233     0.16900
C847        C  0.23852002  0.94480867  0.19616945     0.26300
C848        C  0.25483882  0.95877658  0.17882174    -0.39900
C849        C  0.27059427  0.94915592  0.15404002     0.33300
C850        C  0.27004275  0.92581730  0.14684811     0.15000
F851        F  0.22205179  0.90837572  0.20607409    -0.12300
F852        F  0.28713216  0.96213926  0.13823141    -0.12800
F853        F  0.22337227  0.95368855  0.22068315    -0.15100
F854        F  0.28575528  0.91669094  0.12360995    -0.13700
F855        F  0.21876184  0.88931578  0.12338084    -0.13700
F856        F  0.28717425  0.83793293  0.18608241    -0.15100
C857        C  0.37183429  0.77599468  0.39487875     0.15000
C858        C  0.38438699  0.75937747  0.41411679     0.01900
C859        C  0.37288225  0.74075976  0.43008466     0.16900
C860        C  0.34926650  0.73874281  0.42693072     0.26300
C861        C  0.33652956  0.75534460  0.40758580    -0.40000
C862        C  0.34819649  0.77401856  0.39155116     0.33400
C863        C  0.40941981  0.76150638  0.41826045     0.02000
F864        F  0.38453108  0.72467815  0.44950231    -0.12300
F865        F  0.33676644  0.79067343  0.37314191    -0.12800
C866        C  0.41900033  0.78000123  0.43748071     0.16900
C867        C  0.44243216  0.78097927  0.44415436     0.26300
C868        C  0.45673125  0.76347046  0.43178940    -0.39900
C869        C  0.44717839  0.74525609  0.41175082     0.33300
C870        C  0.42378505  0.74439427  0.40480510     0.15000
F871        F  0.40553995  0.79667525  0.45111779    -0.12300
F872        F  0.46022205  0.72759181  0.40074571    -0.12800
F873        F  0.45114671  0.79895780  0.46309740    -0.15100
F874        F  0.41504836  0.72658374  0.38546584    -0.13700
F875        F  0.38251755  0.79409569  0.37898041    -0.13700
F876        F  0.33896622  0.72039859  0.44274743    -0.15100
C877        C  0.26177654  0.87549070  0.39120898     0.15000
C878        C  0.24055519  0.88583208  0.38547887     0.01900
C879        C  0.22094343  0.87215803  0.38423477     0.16900
C880        C  0.22255001  0.84858472  0.38848280     0.26300
C881        C  0.24382548  0.83824209  0.39333476    -0.40000
C882        C  0.26341921  0.85188151  0.39474058     0.33400
C883        C  0.23902950  0.91073196  0.37935648     0.02000
F884        F  0.20031351  0.88155300  0.37756390    -0.12300
F885        F  0.28410801  0.84236170  0.40029601    -0.12800
C886        C  0.25119027  0.92104199  0.34990411     0.16900
C887        C  0.24963519  0.94439721  0.34355456     0.26300
C888        C  0.23571431  0.95795407  0.36628518    -0.39900
C889        C  0.22337917  0.94764973  0.39557963     0.33300
C890        C  0.22515089  0.92425262  0.40222071     0.15000
F891        F  0.26407961  0.90835288  0.32649946    -0.12300
F892        F  0.20878928  0.95995868  0.41662863    -0.12800
F893        F  0.26172207  0.95378112  0.31494383    -0.15100
F894        F  0.21320481  0.91476068  0.43087898    -0.13700
F895        F  0.28091236  0.88831812  0.39366820    -0.13700
F896        F  0.20340388  0.83575046  0.38625108    -0.15100
C897        C  0.12526517  0.74267307  0.18757969     0.15000
C898        C  0.11207216  0.75014434  0.15710534     0.01900
C899        C  0.12287318  0.75982244  0.12570368     0.16900
C900        C  0.14659685  0.76145717  0.12437257     0.26300
C901        C  0.15991734  0.75336214  0.15451233    -0.40000
C902        C  0.14887964  0.74436116  0.18643702     0.33400
C903        C  0.08710157  0.74728303  0.15815017     0.02000
F904        F  0.11041260  0.76765366  0.09629888    -0.12300
F905        F  0.16090285  0.73708923  0.21673972    -0.12800
C906        C  0.07451381  0.75704048  0.18726477     0.16900
C907        C  0.05132232  0.75262737  0.19054145     0.26300
C908        C  0.04019429  0.73829514  0.16483325    -0.39900
C909        C  0.05271045  0.72882432  0.13522925     0.33300
C910        C  0.07597791  0.73343294  0.13178860     0.15000
F911        F  0.08479135  0.77062711  0.21292015    -0.12300
F912        F  0.04283549  0.71408330  0.11099397    -0.12800
F913        F  0.03972852  0.76223816  0.21924247    -0.15100
F914        F  0.08791967  0.72338202  0.10392093    -0.13700
F915        F  0.11527643  0.73308092  0.21816692    -0.13700
F916        F  0.15646749  0.77032090  0.09311897    -0.15100
C917        C  0.87347930  0.75360467  0.16438282     0.15000
C918        C  0.88474763  0.74170551  0.13602877     0.01900
C919        C  0.87216766  0.73204737  0.10672248     0.16900
C920        C  0.84850003  0.73390039  0.10602079     0.26300
C921        C  0.83694192  0.74540198  0.13491441    -0.40000
C922        C  0.84982323  0.75544957  0.16393104     0.33400
C923        C  0.90941202  0.73775201  0.13893979     0.02000
F924        F  0.88285795  0.72059548  0.07895548    -0.12300
F925        F  0.83958105  0.76645094  0.19265930    -0.12800
C926        C  0.91729847  0.71651975  0.15112372     0.16900
C927        C  0.94038636  0.71321594  0.15813162     0.26300
C928        C  0.95598108  0.73099674  0.15249785    -0.39900
C929        C  0.94821362  0.75199377  0.13869841     0.33300
C930        C  0.92500808  0.75538705  0.13218040     0.15000
F931        F  0.90244202  0.69931699  0.15793864    -0.12300
F932        F  0.96283889  0.76963567  0.13398520    -0.12800
F933        F  0.94749473  0.69280877  0.17142624    -0.15100
F934        F  0.91764575  0.77604205  0.12042344    -0.13700
F935        F  0.88537534  0.76272449  0.19334265    -0.13700
F936        F  0.83698588  0.72432959  0.07705537    -0.15100
C937        C  0.07782715  0.73992997  0.34986515     0.15000
C938        C  0.08763598  0.75189960  0.37987239     0.01900
C939        C  0.07382203  0.76606656  0.40176230     0.16900
C940        C  0.05077968  0.76869498  0.39314033     0.26300
C941        C  0.04104735  0.75683555  0.36293454    -0.40000
C942        C  0.05476859  0.74233755  0.34155009     0.33400
C943        C  0.11250055  0.75076862  0.38653956     0.02000
F944        F  0.08275176  0.77765490  0.43117739    -0.12300
F945        F  0.04585448  0.73062727  0.31224204    -0.12800
C946        C  0.12562272  0.77075273  0.38589969     0.16900
C947        C  0.14917703  0.76978122  0.39011573     0.26300
C948        C  0.16015816  0.74878338  0.39425536    -0.39900
C949        C  0.14711961  0.72876536  0.39504135     0.33300
C950        C  0.12343696  0.72976901  0.39164449     0.15000
F951        F  0.11572081  0.79120024  0.37968810    -0.12300
F952        F  0.15727434  0.70830920  0.39978055    -0.12800
F953        F  0.16139878  0.78935101  0.38841900    -0.15100
F954        F  0.11115116  0.71025544  0.39354563    -0.13700
F955        F  0.09078295  0.72659906  0.32757787    -0.13700
F956        F  0.03832489  0.78368113  0.41316355    -0.15100
C957        C  0.92392191  0.74090718  0.38615123     0.15000
C958        C  0.90939482  0.75920701  0.37830172     0.01900
C959        C  0.91856199  0.77944833  0.36369774     0.16900
C960        C  0.94181348  0.78119799  0.35628149     0.26300
C961        C  0.95631444  0.76284278  0.36381479    -0.40000
C962        C  0.94723793  0.74274684  0.37911525     0.33400
C963        C  0.88451640  0.75678448  0.38296720     0.02000
F964        F  0.90481577  0.79718290  0.35514705    -0.12300
F965        F  0.96073788  0.72449637  0.38533705    -0.12800
C966        C  0.87266367  0.77046741  0.40836195     0.16900
C967        C  0.84894782  0.76906420  0.41097120     0.26300
C968        C  0.83657641  0.75396599  0.38791967    -0.39900
C969        C  0.84877671  0.73991710  0.36307137     0.33300
C970        C  0.87241080  0.74137346  0.36066780     0.15000
F971        F  0.88412353  0.78523013  0.43064870    -0.12300
F972        F  0.83792661  0.72492077  0.34039185    -0.12800
F973        F  0.83820447  0.78268290  0.43583081    -0.15100
F974        F  0.88346488  0.72818664  0.33551494    -0.13700
F975        F  0.91542009  0.72111126  0.39994631    -0.13700
F976        F  0.95017643  0.80075530  0.34133555    -0.15100
C977        C  0.00958455  0.73232703  0.46863886     0.15000
C978        C  0.99940833  0.74803361  0.49291776     0.01900
C979        C  0.98845768  0.76710186  0.47754689     0.16900
C980        C  0.98808946  0.77066744  0.43870960     0.26300
C981        C  0.99837280  0.75507398  0.41441350    -0.40000
C982        C  0.00894169  0.73575393  0.42968300     0.33400
C983        C  0.00156572  0.74380707  0.02784346     0.02000
F984        F  0.97801349  0.78225871  0.50023649    -0.12300
F985        F  0.01853149  0.72017016  0.40680140    -0.12800
C986        C  0.01129906  0.75986890  0.05228730     0.16900
C987        C  0.01034169  0.75666430  0.09128175     0.26300
C988        C  0.99996929  0.73717279  0.10644685    -0.39900
C989        C  0.99076315  0.72088183  0.08199506     0.33300
C990        C  0.99142256  0.72420594  0.04311342     0.15000
F991        F  0.02179560  0.77864571  0.03832604    -0.12300
F992        F  0.98130948  0.70156392  0.09592079    -0.12800
F993        F  0.01910054  0.77278760  0.11423591    -0.15100
F994        F  0.98163786  0.70851207  0.02041153    -0.13700
F995        F  0.02053471  0.71391862  0.48271062    -0.13700
F996        F  0.97830576  0.78976183  0.42483325    -0.15100
C997        C  0.24527222  0.41998444  0.44172941     0.15000
C998        C  0.25713199  0.41012079  0.41178471     0.01900
C999        C  0.27051128  0.42409994  0.38837334     0.16900
C1000       C  0.27245845  0.44740254  0.39541515     0.26300
C1001       C  0.26067566  0.45715744  0.42553225    -0.40000
C1002       C  0.24690812  0.44325815  0.44833438     0.33400
C1003       C  0.25603218  0.38520610  0.40585259     0.02000
F1004       F  0.28186259  0.41513057  0.35885717    -0.12300
F1005       F  0.23517387  0.45224006  0.47744302    -0.12800
C1006       C  0.23494581  0.37408820  0.40252819     0.16900
C1007       C  0.23387402  0.35049321  0.39874767     0.26300
C1008       C  0.25386949  0.33761315  0.39732202    -0.39900
C1009       C  0.27498294  0.34873089  0.40002869     0.33300
C1010       C  0.27604299  0.37227567  0.40473011     0.15000
F1011       F  0.21534687  0.38612191  0.40261477    -0.12300
F1012       F  0.29458273  0.33668713  0.39976894    -0.12800
F1013       F  0.21326944  0.34025628  0.39575291    -0.15100
F1014       F  0.29660811  0.38234571  0.40955051    -0.13700
F1015       F  0.23271589  0.40695213  0.46550619    -0.13700
F1016       F  0.28666426  0.46013657  0.37390452    -0.15100
C1017       C  0.27865468  0.58058574  0.42639606     0.15000
C1018       C  0.25856811  0.58907302  0.41043699     0.01900
C1019       C  0.24133196  0.57380641  0.39983033     0.16900
C1020       C  0.24376422  0.55048849  0.40677125     0.26300
C1021       C  0.26357052  0.54215608  0.42403974    -0.40000
C1022       C  0.28110799  0.55737622  0.43322565     0.33400
C1023       C  0.25519130  0.61394620  0.40772966     0.02000
F1024       F  0.22169766  0.58159589  0.38459902    -0.12300
F1025       F  0.30060096  0.54974772  0.44919674    -0.12800
C1026       C  0.25249439  0.62482702  0.37280048     0.16900
C1027       C  0.25060072  0.64854304  0.37076607     0.26300
C1028       C  0.25159469  0.66171770  0.40366281    -0.39900
C1029       C  0.25384877  0.65066175  0.43858225     0.33300
C1030       C  0.25548475  0.62703915  0.44057887     0.15000
F1031       F  0.25246630  0.61255272  0.34064486    -0.12300
F1032       F  0.25405952  0.66271672  0.47096490    -0.12800
F1033       F  0.24871360  0.65866492  0.33656910    -0.15100
F1034       F  0.25727697  0.61685063  0.47475568    -0.13700
F1035       F  0.29579228  0.59491581  0.43595894    -0.13700
F1036       F  0.22622754  0.53629519  0.39878800    -0.15100
C1037       C  0.22283860  0.58058787  0.11631074     0.15000
C1038       C  0.24009970  0.59015588  0.13834325     0.01900
C1039       C  0.25699147  0.57615320  0.15366760     0.16900
C1040       C  0.25702432  0.55286484  0.14604131     0.26300
C1041       C  0.23990614  0.54327272  0.12346960    -0.40000
C1042       C  0.22267446  0.55731481  0.10904847     0.33400
C1043       C  0.24171586  0.61502109  0.14193189     0.02000
F1044       F  0.27407011  0.58526476  0.17439211    -0.12300
F1045       F  0.20591714  0.54853365  0.08722957    -0.12800
C1046       C  0.23319566  0.62609919  0.17362739     0.16900
C1047       C  0.23428503  0.64981591  0.17604959     0.26300
C1048       C  0.24401201  0.66279371  0.14667940    -0.39900
C1049       C  0.25255634  0.65139386  0.11498297     0.33300
C1050       C  0.25140782  0.62777717  0.11274259     0.15000
F1051       F  0.22365003  0.61393190  0.20202197    -0.12300
F1052       F  0.26160584  0.66306140  0.08558844    -0.12800
F1053       F  0.22601462  0.65997153  0.20726994    -0.15100
F1054       F  0.25968061  0.61727231  0.08183460    -0.13700
F1055       F  0.20656548  0.59396671  0.10084732    -0.13700
F1056       F  0.27462333  0.54007223  0.15848620    -0.15100
C1057       C  0.25696931  0.37555136  0.17088205     0.15000
C1058       C  0.25257771  0.38691397  0.13691333     0.01900
C1059       C  0.24849200  0.37428314  0.10428477     0.16900
C1060       C  0.24879201  0.35060695  0.10546494     0.26300
C1061       C  0.25343978  0.33906023  0.13931682    -0.40000
C1062       C  0.25759292  0.35177896  0.17206131     0.33400
C1063       C  0.25252763  0.41195714  0.13479729     0.02000
F1064       F  0.24406077  0.38496352  0.07119867    -0.12300
F1065       F  0.26177286  0.34123036  0.20533825    -0.12800
C1066       C  0.26907421  0.42325049  0.11331250     0.16900
C1067       C  0.26748063  0.44657318  0.10682154     0.26300
C1068       C  0.24943493  0.45899608  0.12201579    -0.39900
C1069       C  0.23343026  0.44792127  0.14496913     0.33300
C1070       C  0.23494699  0.42448518  0.15126694     0.15000
F1071       F  0.28644109  0.41150649  0.09779009    -0.12300
F1072       F  0.21556331  0.45949235  0.15922124    -0.12800
F1073       F  0.28335502  0.45702657  0.08511908    -0.15100
F1074       F  0.21856272  0.41380621  0.17156921    -0.13700
F1075       F  0.26093191  0.38750210  0.20272779    -0.13700
F1076       F  0.24503826  0.33899492  0.07319835    -0.15100
C1077       C  0.26976025  0.51167408  0.31098965     0.15000
C1078       C  0.25126802  0.50017987  0.29485664     0.01900
C1079       C  0.23568908  0.48886608  0.31837155     0.16900
C1080       C  0.23878534  0.48885201  0.35744010     0.26300
C1081       C  0.25756240  0.50003061  0.37343580    -0.40000
C1082       C  0.27297820  0.51143894  0.34982519     0.33400
C1083       C  0.24888806  0.49956077  0.25343012     0.02000
F1084       F  0.21780970  0.47743221  0.30343191    -0.12300
F1085       F  0.29159016  0.52181038  0.36438460    -0.12800
C1086       C  0.26622273  0.49010310  0.23150031     0.16900
C1087       C  0.26489723  0.49070672  0.19231656     0.26300
C1088       C  0.24605778  0.50050712  0.17431624    -0.39900
C1089       C  0.22856458  0.50970613  0.19622662     0.33300
C1090       C  0.22997078  0.50926606  0.23550261     0.15000
F1091       F  0.28449112  0.48029166  0.24816262    -0.12300
F1092       F  0.21001616  0.51888393  0.17949895    -0.12800
F1093       F  0.28233598  0.48230799  0.17188634    -0.15100
F1094       F  0.21312344  0.51874527  0.25601599    -0.13700
F1095       F  0.28477632  0.52312756  0.28898589    -0.13700
F1096       F  0.22342890  0.47808018  0.37968210    -0.15100
N1097       N  0.24273178  0.50140213  0.62432178    -0.01200
C1098       C  0.24416911  0.48358926  0.60047366     0.01400
C1099       C  0.24230025  0.49084568  0.56365454    -0.21500
C1100       C  0.23971786  0.51395664  0.56466058    -0.21700
C1101       C  0.24007943  0.51998289  0.60211556     0.01300
H1102       H  0.24220456  0.48035822  0.53886671     0.15100
H1103       H  0.23785264  0.52516874  0.54068918     0.15200
N1104       N  0.26132937  0.50112162  0.90417391    -0.01200
C1105       C  0.26283994  0.48207807  0.92580676     0.01400
C1106       C  0.26924096  0.48777583  0.96200108    -0.21500
C1107       C  0.27155614  0.51092991  0.96283247    -0.21700
C1108       C  0.26656973  0.51873418  0.92712102     0.01300
H1109       H  0.27189358  0.47631214  0.98543517     0.15100
H1110       H  0.27583763  0.52102534  0.98715473     0.15200
N1111       N  0.00031185  0.76075734  0.86868340    -0.01200
C1112       C  0.01880999  0.76221632  0.84610971     0.01400
C1113       C  0.01232197  0.76811902  0.81000708    -0.21500
C1114       C  0.98907961  0.77045101  0.81045583    -0.21700
C1115       C  0.98214096  0.76576252  0.84675687     0.01300
H1116       H  0.02330672  0.77059534  0.78599742     0.15100
H1117       H  0.97836042  0.77455242  0.78668298     0.15200
N1118       N  0.99766434  0.73777250  0.65345915    -0.01200
C1119       C  0.97853133  0.73427920  0.67380964     0.01400
C1120       C  0.98366911  0.73277883  0.71163718    -0.21500
C1121       C  0.00677648  0.73575354  0.71471118    -0.21700
C1122       C  0.01490857  0.73881578  0.67863755     0.01300
H1123       H  0.97180596  0.73073748  0.73459062     0.15100
H1124       H  0.01657218  0.73581386  0.74044091     0.15200
Zn1125     Zn  0.26924704  0.73319203  0.93306490     1.49700
Zn1126     Zn  0.23102103  0.72998773  0.86884630     1.49400
Zn1127     Zn  0.22899997  0.76932337  0.93012243     1.49100
Zn1128     Zn  0.26831296  0.77014952  0.86755060     1.49500
O1129       O  0.24939196  0.75065341  0.89981802    -1.81800
O1130       O  0.26483246  0.69970475  0.92475698    -0.72400
O1131       O  0.19728585  0.73398393  0.87793088    -0.72300
O1132       O  0.23377565  0.76417949  0.98582872    -0.71800
O1133       O  0.23892806  0.69737367  0.87945831    -0.72500
O1134       O  0.26196766  0.73922485  0.98746080    -0.72100
O1135       O  0.19632011  0.76266713  0.91809446    -0.72600
O1136       O  0.26175816  0.80318473  0.87718776    -0.72000
O1137       O  0.23657579  0.73592548  0.81373066    -0.72800
O1138       O  0.23383087  0.80247272  0.91918236    -0.72200
O1139       O  0.26222034  0.76376019  0.81264016    -0.72600
O1140       O  0.30182472  0.76569157  0.87732887    -0.72600
O1141       O  0.30246235  0.74083876  0.92414066    -0.72300
C1142       C  0.25246240  0.68802372  0.90269624     0.79400
C1143       C  0.18624581  0.74825663  0.89737590     0.79900
C1144       C  0.24757281  0.75171013  0.00409047     0.78900
C1145       C  0.24746289  0.81330221  0.89791713     0.79300
C1146       C  0.24928051  0.74973455  0.79576415     0.80400
C1147       C  0.31285564  0.75383283  0.90108170     0.79500
Zn1148     Zn  0.26446039  0.73049419  0.61680426     1.49700
Zn1149     Zn  0.22844126  0.73064419  0.68304603     1.49400
Zn1150     Zn  0.26801827  0.76773278  0.68097760     1.49100
Zn1151     Zn  0.22764975  0.76989245  0.61952844     1.49500
O1152       O  0.24705090  0.74985824  0.65009625    -1.81800
O1153       O  0.25617389  0.69789424  0.62392705    -0.72400
O1154       O  0.23538301  0.73601329  0.73773177    -0.72300
O1155       O  0.30076416  0.75919712  0.67104668    -0.71800
O1156       O  0.23244633  0.69738807  0.67210333    -0.72500
O1157       O  0.29783759  0.73333223  0.62630586    -0.72100
O1158       O  0.26216164  0.76268318  0.73635419    -0.72600
O1159       O  0.23488432  0.80289737  0.63077074    -0.72000
O1160       O  0.19549717  0.73729331  0.67507396    -0.72800
O1161       O  0.26395271  0.80118429  0.67050161    -0.72200
O1162       O  0.19440672  0.76405101  0.63113136    -0.72600
O1163       O  0.23247196  0.76481367  0.56336951    -0.72600
O1164       O  0.25881482  0.73794931  0.56267525    -0.72300
C1165       C  0.24359806  0.68708486  0.64687788     0.79400
C1166       C  0.24894102  0.74946208  0.75448508     0.79900
C1167       C  0.30987268  0.74523206  0.64846475     0.78900
C1168       C  0.24992996  0.81266588  0.65089321     0.79300
C1169       C  0.18429987  0.75059309  0.65381866     0.80400
C1170       C  0.24563643  0.75155934  0.54554136     0.79500
N1171       N  0.49717007  0.74451473  0.63842043    -0.01200
C1172       C  0.47905787  0.73883251  0.61680270     0.01400
C1173       C  0.48568425  0.73591669  0.57991834    -0.21500
C1174       C  0.50868932  0.73993392  0.57879389    -0.21700
C1175       C  0.51524793  0.74518767  0.61496164     0.01300
H1176       H  0.47491841  0.73158599  0.55634521     0.15100
H1177       H  0.51958230  0.73851504  0.55452024     0.15200
N1178       N  0.50046354  0.76435908  0.91729931    -0.01200
C1179       C  0.51874318  0.76480590  0.94069296     0.01400
C1180       C  0.51164167  0.76834502  0.97722133    -0.21500
C1181       C  0.48834983  0.76996610  0.97631385    -0.21700
C1182       C  0.48191910  0.76735841  0.93926659     0.01300
H1183       H  0.52228834  0.76979488  0.00185293     0.15100
H1184       H  0.47728006  0.77235847  0.00016881     0.15200
Zn1185     Zn  0.76818670  0.77081674  0.91708515     1.49700
Zn1186     Zn  0.73144556  0.73010246  0.91821217     1.49400
Zn1187     Zn  0.72931573  0.76737959  0.85344000     1.49100
Zn1188     Zn  0.76978120  0.73205692  0.85456324     1.49500
O1189       O  0.74974005  0.75017238  0.88609375    -1.81800
O1190       O  0.76168061  0.76565911  0.97285273    -0.72400
O1191       O  0.69762670  0.73483699  0.91040277    -0.72300
O1192       O  0.73563232  0.80076483  0.85794024    -0.71800
O1193       O  0.73803660  0.73604629  0.97291492    -0.72500
O1194       O  0.76135608  0.80360275  0.90327004    -0.72100
O1195       O  0.69665040  0.76262049  0.86801283    -0.72600
O1196       O  0.76386372  0.73722795  0.79949061    -0.72000
O1197       O  0.73877886  0.69741866  0.90854381    -0.72800
O1198       O  0.73316058  0.75905629  0.79875505    -0.72200
O1199       O  0.76567295  0.69882069  0.86514827    -0.72600
O1200       O  0.80248229  0.73956166  0.86384470    -0.72600
O1201       O  0.80202057  0.76593401  0.90785976    -0.72300
C1202       C  0.74978591  0.75083234  0.99025192     0.79400
C1203       C  0.68660277  0.74903688  0.89044143     0.79900
C1204       C  0.74834161  0.81278754  0.87892125     0.78900
C1205       C  0.74832674  0.74772623  0.78180987     0.79300
C1206       C  0.75285188  0.68752020  0.88713298     0.80400
C1207       C  0.81294860  0.75314786  0.88549601     0.79500
Zn1208     Zn  0.76632962  0.72833969  0.60391339     1.49700
Zn1209     Zn  0.76834907  0.76544146  0.66834676     1.49400
Zn1210     Zn  0.72937203  0.76764007  0.60537082     1.49100
Zn1211     Zn  0.72830273  0.72855411  0.66870176     1.49500
O1212       O  0.74799054  0.74745237  0.63662018    -1.81800
O1213       O  0.79980286  0.73470783  0.61057832    -0.72400
O1214       O  0.76291725  0.79873134  0.66061200    -0.72300
O1215       O  0.73601357  0.76366087  0.55012944    -0.71800
O1216       O  0.80124439  0.75999092  0.65623229    -0.72500
O1217       O  0.75916144  0.73393844  0.54896640    -0.72100
O1218       O  0.73573344  0.80036975  0.61760193    -0.72600
O1219       O  0.69515600  0.73475668  0.65768842    -0.72000
O1220       O  0.76332137  0.75865238  0.72324218    -0.72800
O1221       O  0.69586357  0.76157991  0.61354121    -0.72200
O1222       O  0.73334395  0.73553448  0.72371936    -0.72600
O1223       O  0.73490495  0.69494865  0.66097914    -0.72600
O1224       O  0.76115317  0.69533762  0.61641643    -0.72300
C1225       C  0.81118951  0.74748272  0.63239548     0.79400
C1226       C  0.74963150  0.81016735  0.63968542     0.79900
C1227       C  0.74762244  0.74916478  0.53219313     0.78900
C1228       C  0.68491992  0.74829454  0.63539760     0.79300
C1229       C  0.74830657  0.74723254  0.74079292     0.80400
C1230       C  0.74852662  0.68446378  0.63936476     0.79500
N1231       N  0.74549921  0.49782665  0.62248835    -0.01200
C1232       C  0.74317130  0.51598853  0.59933760     0.01400
C1233       C  0.74030569  0.50891827  0.56268582    -0.21500
C1234       C  0.74112639  0.48554403  0.56340465    -0.21700
C1235       C  0.74428598  0.47913258  0.60051786     0.01300
H1236       H  0.73822221  0.51957055  0.53807983     0.15100
H1237       H  0.73943757  0.47442889  0.53948029     0.15200
N1238       N  0.76238428  0.50064581  0.90210716    -0.01200
C1239       C  0.76501754  0.51927534  0.92399266     0.01400
C1240       C  0.76660004  0.51306056  0.96139989    -0.21500
C1241       C  0.76479945  0.48985802  0.96272747    -0.21700
C1242       C  0.76223455  0.48264680  0.92609452     0.01300
H1243       H  0.76838230  0.52424104  0.98524280     0.15100
H1244       H  0.76538195  0.47934238  0.98772113     0.15200
N1245       N  0.73970050  0.00015632  0.87257091    -0.01200
C1246       C  0.73734573  0.01922523  0.85137613     0.01400
C1247       C  0.73706873  0.01387882  0.81362624    -0.21500
C1248       C  0.73955140  0.99075614  0.81143034    -0.21700
C1249       C  0.74119030  0.98277259  0.84787253     0.01300
H1250       H  0.73587175  0.02559971  0.79020221     0.15100
H1251       H  0.73999817  0.98078872  0.78605346     0.15200
N1252       N  0.75825964  0.99742084  0.65268938    -0.01200
C1253       C  0.75915809  0.97835156  0.67415930     0.01400
C1254       C  0.76403305  0.98378359  0.71101553    -0.21500
C1255       C  0.76613420  0.00698720  0.71240994    -0.21700
C1256       C  0.76240268  0.01492974  0.67634623     0.01300
H1257       H  0.76598104  0.97207020  0.73429067     0.15100
H1258       H  0.76956381  0.01701297  0.73716668     0.15200
Zn1259     Zn  0.77034614  0.23019943  0.86369635     1.49700
Zn1260     Zn  0.77370971  0.26823814  0.92709945     1.49400
Zn1261     Zn  0.73396921  0.27040686  0.86471433     1.49100
Zn1262     Zn  0.73307356  0.23169487  0.92855857     1.49500
O1263       O  0.75275021  0.25020045  0.89606488    -1.81800
O1264       O  0.80401314  0.23540643  0.87001659    -0.72400
O1265       O  0.76909386  0.30165303  0.91743651    -0.72300
O1266       O  0.73833494  0.26422213  0.80920210    -0.71800
O1267       O  0.80663723  0.26128897  0.91478876    -0.72500
O1268       O  0.76315607  0.23591863  0.80917321    -0.72100
O1269       O  0.74183388  0.30333887  0.87452046    -0.72600
O1270       O  0.70004405  0.23901039  0.91944690    -0.72000
O1271       O  0.76817562  0.26284873  0.98274428    -0.72800
O1272       O  0.70057601  0.26592622  0.87579743    -0.72200
O1273       O  0.73991409  0.23768112  0.98324751    -0.72600
O1274       O  0.73704543  0.19806011  0.91900955    -0.72600
O1275       O  0.76329003  0.19729792  0.87455957    -0.72300
C1276       C  0.81596147  0.24819535  0.89101361     0.79400
C1277       C  0.75601725  0.31314732  0.89617172     0.79900
C1278       C  0.75041275  0.24984920  0.79174882     0.78900
C1279       C  0.68962616  0.25282988  0.89792332     0.79300
C1280       C  0.75405342  0.25034191  0.00045592     0.80400
C1281       C  0.74966161  0.18700995  0.89662927     0.79500
Zn1282     Zn  0.73366480  0.22755219  0.61376308     1.49700
Zn1283     Zn  0.77047532  0.22989866  0.67946237     1.49400
Zn1284     Zn  0.77034075  0.26796557  0.61536945     1.49100
Zn1285     Zn  0.73013335  0.26633202  0.67660121     1.49500
O1286       O  0.75109844  0.24799414  0.64631760    -1.81800
O1287       O  0.74098981  0.19451705  0.62407560    -0.72400
O1288       O  0.80362237  0.23724575  0.67129805    -0.72300
O1289       O  0.76467697  0.26274313  0.56011414    -0.71800
O1290       O  0.76568202  0.19635670  0.67112022    -0.72500
O1291       O  0.73978968  0.23425566  0.55917076    -0.72100
O1292       O  0.80366661  0.26251903  0.62476037    -0.72600
O1293       O  0.73436045  0.29985593  0.66527642    -0.72000
O1294       O  0.76370652  0.23622328  0.73365376    -0.72800
O1295       O  0.76407074  0.30097194  0.62677233    -0.72200
O1296       O  0.73610727  0.26184705  0.73240562    -0.72600
O1297       O  0.69725696  0.25793044  0.66585075    -0.72600
O1298       O  0.70007132  0.23162185  0.62174262    -0.72300
C1299       C  0.75369519  0.18483064  0.64825599     0.79400
C1300       C  0.81418814  0.25022019  0.64849668     0.79900
C1301       C  0.75226201  0.24872359  0.54223737     0.78900
C1302       C  0.74895955  0.31095031  0.64612677     0.79300
C1303       C  0.74996158  0.24929202  0.75046384     0.80400
C1304       C  0.68806395  0.24403270  0.64302789     0.79500
N1305       N  0.50069216  0.24455566  0.62678732    -0.01200
C1306       C  0.51879036  0.23959420  0.60492246     0.01400
C1307       C  0.51208293  0.23722751  0.56791740    -0.21500
C1308       C  0.48902286  0.24092404  0.56704030    -0.21700
C1309       C  0.48248678  0.24537428  0.60351119     0.01300
H1310       H  0.52281227  0.23346365  0.54413894     0.15100
H1311       H  0.47808835  0.23985064  0.54270831     0.15200
N1312       N  0.50158506  0.25890180  0.90718801    -0.01200
C1313       C  0.48342676  0.25955519  0.93080780     0.01400
C1314       C  0.49050952  0.26314213  0.96732003    -0.21500
C1315       C  0.51369082  0.26462019  0.96647545    -0.21700
C1316       C  0.52017671  0.26199826  0.92943770     0.01300
H1317       H  0.47994401  0.26439577  0.99204981     0.15100
H1318       H  0.52469026  0.26684805  0.99055694     0.15200
N1319       N  0.23917640  0.99974593  0.88485429    -0.01200
C1320       C  0.23777841  0.98194405  0.86090715     0.01400
C1321       C  0.23350690  0.98960227  0.82477053    -0.21500
C1322       C  0.23221175  0.01284767  0.82652187    -0.21700
C1323       C  0.23581571  0.01858433  0.86361046     0.01300
H1324       H  0.23136281  0.97936833  0.79986896     0.15100
H1325       H  0.22928334  0.02434204  0.80322063     0.15200
N1326       N  0.25830229  0.00055677  0.65990353    -0.01200
C1327       C  0.25760906  0.98249923  0.68378922     0.01400
C1328       C  0.26043864  0.98968291  0.72041675    -0.21500
C1329       C  0.26303843  0.01287625  0.71905180    -0.21700
C1330       C  0.26159415  0.01915039  0.68165412     0.01300
H1331       H  0.26076049  0.97916353  0.74541064     0.15100
H1332       H  0.26517944  0.02402544  0.74285771     0.15200
N1333       N  0.00322178  0.24127558  0.87166971    -0.01200
C1334       C  0.98489119  0.24067002  0.84853305     0.01400
C1335       C  0.99166098  0.23601075  0.81222518    -0.21500
C1336       C  0.01492055  0.23388184  0.81301002    -0.21700
C1337       C  0.02161161  0.23727377  0.84981410     0.01300
H1338       H  0.98086084  0.23400573  0.78807711     0.15100
H1339       H  0.02573890  0.23053802  0.78926735     0.15200
N1340       N  0.00152365  0.25689041  0.65541752    -0.01200
C1341       C  0.02016842  0.25967628  0.67722621     0.01400
C1342       C  0.01401867  0.26211101  0.71442473    -0.21500
C1343       C  0.99068268  0.26056670  0.71552166    -0.21700
C1344       C  0.98350943  0.25729268  0.67895885     0.01300
H1345       H  0.02523065  0.26433365  0.73813633     0.15100
H1346       H  0.98013198  0.26195329  0.73994193     0.15200
Zn1347     Zn  0.27087014  0.22962880  0.92227943     1.49700
Zn1348     Zn  0.27252026  0.26972685  0.85983881     1.49400
Zn1349     Zn  0.23440656  0.23158507  0.85661856     1.49100
Zn1350     Zn  0.23307767  0.26875173  0.92199395     1.49500
O1351       O  0.25278689  0.25004857  0.89033581    -1.81800
O1352       O  0.30423036  0.23369691  0.91160731    -0.72400
O1353       O  0.26701218  0.26561066  0.80368974    -0.72300
O1354       O  0.23936982  0.19816668  0.86490631    -0.71800
O1355       O  0.30517626  0.26267070  0.87116299    -0.72500
O1356       O  0.26303209  0.19673728  0.91333945    -0.72100
O1357       O  0.24054860  0.23867295  0.80260404    -0.72600
O1358       O  0.19981615  0.26167391  0.91238490    -0.72000
O1359       O  0.26739651  0.30283049  0.87169636    -0.72800
O1360       O  0.20148737  0.23742601  0.86489231    -0.72200
O1361       O  0.23833852  0.30228012  0.91142974    -0.72600
O1362       O  0.23963712  0.26311260  0.97719036    -0.72600
O1363       O  0.26582428  0.23602895  0.97754354    -0.72300
C1364       C  0.31517338  0.24796770  0.89159577     0.79400
C1365       C  0.25363100  0.25252600  0.78568541     0.79900
C1366       C  0.25064555  0.18685627  0.88904326     0.78900
C1367       C  0.19012916  0.24923171  0.88791210     0.79300
C1368       C  0.25288268  0.31314429  0.89177037     0.80400
C1369       C  0.25290922  0.24974142  0.99484597     0.79500
Zn1370     Zn  0.27050529  0.23261175  0.60949678     1.49700
Zn1371     Zn  0.27040240  0.27241865  0.67087147     1.49400
Zn1372     Zn  0.23169440  0.27011897  0.60766674     1.49100
Zn1373     Zn  0.23271679  0.23275710  0.67311261     1.49500
O1374       O  0.25134937  0.25199271  0.64039411    -1.81800
O1375       O  0.30339094  0.23957255  0.61893579    -0.72400
O1376       O  0.26296107  0.30522617  0.66039519    -0.72300
O1377       O  0.23763699  0.26391835  0.55299421    -0.71800
O1378       O  0.30365823  0.26785028  0.65985012    -0.72500
O1379       O  0.26440727  0.23745506  0.55426266    -0.72100
O1380       O  0.23641160  0.30348780  0.61636232    -0.72600
O1381       O  0.19924734  0.23782845  0.66326015    -0.72000
O1382       O  0.26603000  0.26666514  0.72650526    -0.72800
O1383       O  0.19878835  0.26330604  0.61732019    -0.72200
O1384       O  0.23946955  0.23971763  0.72742629    -0.72600
O1385       O  0.23927519  0.19932606  0.66546086    -0.72600
O1386       O  0.26564366  0.19937924  0.62127246    -0.72300
C1387       C  0.31411664  0.25380865  0.63913461     0.79400
C1388       C  0.24919318  0.31499299  0.63800441     0.79900
C1389       C  0.25099570  0.25043841  0.53621312     0.78900
C1390       C  0.18833738  0.25031461  0.64018152     0.79300
C1391       C  0.25304743  0.25309377  0.74439516     0.80400
C1392       C  0.25283837  0.18865717  0.64409884     0.79500
C1393       C  0.12721635  0.23750015  0.66790403     0.15000
C1394       C  0.11512492  0.25164208  0.64328290     0.01900
C1395       C  0.12692191  0.26446793  0.61636994     0.16900
C1396       C  0.15062095  0.26362065  0.61461815     0.26300
C1397       C  0.16303872  0.25003389  0.64020942    -0.40000
C1398       C  0.15091557  0.23669786  0.66651450     0.33400
C1399       C  0.09039888  0.25438685  0.64795534     0.02000
F1400       F  0.11544300  0.27808741  0.59208830    -0.12300
F1401       F  0.16189920  0.22326963  0.69168697    -0.12800
C1402       C  0.08191927  0.27456407  0.66318942     0.16900
C1403       C  0.05886503  0.27651002  0.67160925     0.26300
C1404       C  0.04391899  0.25845298  0.66433226    -0.39900
C1405       C  0.05223806  0.23853235  0.64787097     0.33300
C1406       C  0.07540081  0.23646510  0.63991398     0.15000
F1407       F  0.09618818  0.29199595  0.67142911    -0.12300
F1408       F  0.03818283  0.22064838  0.64150149    -0.12800
F1409       F  0.05114070  0.29589951  0.68744339    -0.15100
F1410       F  0.08331414  0.21682154  0.62522759    -0.13700
F1411       F  0.11606491  0.22514535  0.69442003    -0.13700
F1412       F  0.16129905  0.27646888  0.58820985    -0.15100
C1413       C  0.12809587  0.24518267  0.91536921     0.15000
C1414       C  0.11760505  0.24377576  0.87995611     0.01900
C1415       C  0.13101719  0.24507705  0.84742617     0.16900
C1416       C  0.15455543  0.24720118  0.85018650     0.26300
C1417       C  0.16514311  0.24832167  0.88555642    -0.40000
C1418       C  0.15171979  0.24755515  0.91816434     0.33400
C1419       C  0.09271300  0.24090076  0.87645115     0.02000
F1420       F  0.12124932  0.24449766  0.81286918    -0.12300
F1421       F  0.16154144  0.24811357  0.95266718    -0.12800
C1422       C  0.07790722  0.25770320  0.88957622     0.16900
C1423       C  0.05457416  0.25617540  0.88232678     0.26300
C1424       C  0.04569730  0.23768866  0.86208883    -0.39900
C1425       C  0.06047460  0.22046300  0.85032140     0.33300
C1426       C  0.08375168  0.22204511  0.85745860     0.15000
F1427       F  0.08622353  0.27625081  0.90747846    -0.12300
F1428       F  0.05237558  0.20219592  0.83139513    -0.12800
F1429       F  0.04098387  0.27353434  0.89285048    -0.15100
F1430       F  0.09766627  0.20534055  0.84520758    -0.13700
F1431       F  0.11552540  0.24354875  0.94718534    -0.13700
F1432       F  0.16701239  0.24850216  0.81817646    -0.15100
C1433       C  0.01066123  0.27007735  0.55350637     0.15000
C1434       C  0.00120064  0.25080014  0.53627717     0.01900
C1435       C  0.99174584  0.23355905  0.55895635     0.16900
C1436       C  0.99174727  0.23559933  0.59810676     0.26300
C1437       C  0.00109201  0.25490844  0.61516314    -0.40000
C1438       C  0.01049405  0.27214431  0.59260759     0.33400
C1439       C  0.00208758  0.24817199  0.99061603     0.02000
F1440       F  0.98229193  0.21485535  0.54314946    -0.12300
F1441       F  0.01925926  0.29111779  0.60857900    -0.12800
C1442       C  0.01192707  0.22898713  0.97395048     0.16900
C1443       C  0.01227117  0.22679129  0.93491064     0.26300
C1444       C  0.00308620  0.24383259  0.91182441    -0.39900
C1445       C  0.99341279  0.26307188  0.92829759     0.33300
C1446       C  0.99271857  0.26514931  0.96737897     0.15000
F1447       F  0.02152299  0.21250872  0.99544425    -0.12300
F1448       F  0.98497682  0.27998191  0.90641892    -0.12800
F1449       F  0.02114473  0.20777847  0.91952518    -0.15100
F1450       F  0.98262687  0.28361941  0.98254645    -0.13700
F1451       F  0.02040154  0.28673750  0.53246101    -0.13700
F1452       F  0.98312871  0.21851119  0.61949874    -0.15100
C1453       C  0.24127371  0.07583239  0.64404900     0.15000
C1454       C  0.25894859  0.09037088  0.65553200     0.01900
C1455       C  0.27824183  0.08098205  0.67284317     0.16900
C1456       C  0.27950825  0.05760554  0.67962312     0.26300
C1457       C  0.26161645  0.04314295  0.66895309    -0.40000
C1458       C  0.24258810  0.05240716  0.65073003     0.33400
C1459       C  0.25686143  0.11538391  0.65125302     0.02000
F1460       F  0.29539932  0.09460141  0.68483111    -0.12300
F1461       F  0.22464138  0.03902255  0.64157795    -0.12800
C1462       C  0.23909821  0.12703857  0.66889545     0.16900
C1463       C  0.23762440  0.15072182  0.66636091     0.26300
C1464       C  0.25396298  0.16336085  0.64605840    -0.39900
C1465       C  0.27165393  0.15149806  0.62811071     0.33300
C1466       C  0.27304887  0.12782187  0.63073673     0.15000
F1467       F  0.22345279  0.11549701  0.68953146    -0.12300
F1468       F  0.28795427  0.16274915  0.60846555    -0.12800
F1469       F  0.22015653  0.16118554  0.68394232    -0.15100
F1470       F  0.29025611  0.11698557  0.61307067    -0.13700
F1471       F  0.22250468  0.08441333  0.62708045    -0.13700
F1472       F  0.29800247  0.04910967  0.69754797    -0.15100
C1473       C  0.24959167  0.12558170  0.92273499     0.15000
C1474       C  0.24410403  0.11408713  0.88950488     0.01900
C1475       C  0.24147991  0.12648077  0.85598348     0.16900
C1476       C  0.24391152  0.15006250  0.85570962     0.26300
C1477       C  0.24903421  0.16175514  0.88906927    -0.40000
C1478       C  0.25204239  0.14923185  0.92256082     0.33400
C1479       C  0.24108994  0.08916367  0.88916604     0.02000
F1480       F  0.23682691  0.11562829  0.82329426    -0.12300
F1481       F  0.25662616  0.15991370  0.95541062    -0.12800
C1482       C  0.22024097  0.07979461  0.87778173     0.16900
C1483       C  0.21827486  0.05653477  0.87128957     0.26300
C1484       C  0.23697532  0.04223727  0.87679886    -0.39900
C1485       C  0.25745126  0.05132439  0.89044163     0.33300
C1486       C  0.25952364  0.07471437  0.89649884     0.15000
F1487       F  0.20200980  0.09335110  0.87168925    -0.12300
F1488       F  0.27587468  0.03784107  0.89516727    -0.12800
F1489       F  0.19828086  0.04799211  0.85852889    -0.15100
F1490       F  0.27990446  0.08344110  0.90706253    -0.13700
F1491       F  0.25199400  0.11395776  0.95551266    -0.13700
F1492       F  0.24165867  0.16137765  0.82259466    -0.15100
C1493       C  0.22717021  0.00745702  0.98728662     0.15000
C1494       C  0.24637431  0.99755168  0.00401857     0.01900
C1495       C  0.26323537  0.98817979  0.98087233     0.16900
C1496       C  0.26095755  0.98889480  0.94167093     0.26300
C1497       C  0.24182687  0.99900487  0.92508789    -0.40000
C1498       C  0.22494933  0.00819044  0.94821817     0.33400
C1499       C  0.24896774  0.99943395  0.54096075     0.02000
F1500       F  0.28179281  0.97818583  0.99628421    -0.12300
F1501       F  0.20603092  0.01745293  0.93282330    -0.12800
C1502       C  0.23199058  0.99107461  0.56527551     0.16900
C1503       C  0.23507669  0.99155566  0.60424484     0.26300
C1504       C  0.25521899  0.00017843  0.61974705    -0.39900
C1505       C  0.27225419  0.00844869  0.59570637     0.33300
C1506       C  0.26917227  0.00812408  0.55665750     0.15000
F1507       F  0.21245038  0.98220347  0.55129015    -0.12300
F1508       F  0.29201544  0.01650660  0.61015045    -0.12800
F1509       F  0.21815820  0.98410501  0.62705188    -0.15100
F1510       F  0.28574939  0.01673389  0.53423440    -0.13700
F1511       F  0.21072154  0.01680845  0.00882648    -0.13700
F1512       F  0.27755399  0.98008470  0.91984229    -0.15100
C1513       C  0.42271019  0.23876088  0.93519480     0.15000
C1514       C  0.41253694  0.25089347  0.90567735     0.01900
C1515       C  0.42591463  0.26552807  0.88347516     0.16900
C1516       C  0.44901847  0.26843083  0.89128856     0.26300
C1517       C  0.45923670  0.25618379  0.92074751    -0.40000
C1518       C  0.44584037  0.24130961  0.94256646     0.33400
C1519       C  0.38766632  0.24984120  0.90027028     0.02000
F1520       F  0.41643390  0.27738112  0.85469276    -0.12300
F1521       F  0.45512201  0.22938095  0.97145407    -0.12800
C1522       C  0.37483876  0.26978200  0.90315436     0.16900
C1523       C  0.35130836  0.26907100  0.89929162     0.26300
C1524       C  0.34009442  0.24833073  0.89348440    -0.39900
C1525       C  0.35280056  0.22825606  0.89097895     0.33300
C1526       C  0.37650647  0.22904364  0.89393275     0.15000
F1527       F  0.38505953  0.28987659  0.91115630    -0.12300
F1528       F  0.34230442  0.20802654  0.88506763    -0.12800
F1529       F  0.33932803  0.28856415  0.90297761    -0.15100
F1530       F  0.38857493  0.20958880  0.89044120    -0.13700
F1531       F  0.41004889  0.22516992  0.95794766    -0.13700
F1532       F  0.46105272  0.28396620  0.87121110    -0.15100
C1533       C  0.42238875  0.26751735  0.60486712     0.15000
C1534       C  0.41211441  0.25302769  0.63137715     0.01900
C1535       C  0.42547253  0.23693956  0.65046320     0.16900
C1536       C  0.44851147  0.23472301  0.64202497     0.26300
C1537       C  0.45867230  0.24891000  0.61498732    -0.40000
C1538       C  0.44548930  0.26546865  0.59674331     0.33400
C1539       C  0.38715261  0.25312351  0.63606887     0.02000
F1540       F  0.41601050  0.22288346  0.67646338    -0.12300
F1541       F  0.45491033  0.27935257  0.57044428    -0.12800
C1542       C  0.37458080  0.23346139  0.62791370     0.16900
C1543       C  0.35092606  0.23370622  0.62924073     0.26300
C1544       C  0.33926106  0.25367576  0.63873843    -0.39900
C1545       C  0.35189724  0.27328931  0.64768531     0.33300
C1546       C  0.37565386  0.27298866  0.64633742     0.15000
F1547       F  0.38521839  0.21410443  0.61746791    -0.12300
F1548       F  0.34130667  0.29294647  0.65663426    -0.12800
F1549       F  0.33946805  0.21425681  0.62139181    -0.15100
F1550       F  0.38745341  0.29211478  0.65492083    -0.13700
F1551       F  0.40979487  0.28285609  0.58542344    -0.13700
F1552       F  0.46048802  0.21776533  0.65854326    -0.15100
C1553       C  0.50645888  0.23037495  0.72906790     0.15000
C1554       C  0.49856347  0.25034505  0.74600368     0.01900
C1555       C  0.49131684  0.26843549  0.72298010     0.16900
C1556       C  0.49226786  0.26666019  0.68379806     0.26300
C1557       C  0.50050237  0.24682427  0.66703705    -0.40000
C1558       C  0.50751839  0.22869490  0.68994020     0.33400
C1559       C  0.49891338  0.25262701  0.78755666     0.02000
F1560       F  0.48313367  0.28773451  0.73848162    -0.12300
F1561       F  0.51477781  0.20910119  0.67423853    -0.12800
C1562       C  0.51178945  0.26994713  0.80437406     0.16900
C1563       C  0.51265111  0.27198407  0.84349832     0.26300
C1564       C  0.50107525  0.25640756  0.86674596    -0.39900
C1565       C  0.48851900  0.23878492  0.84985547     0.33300
C1566       C  0.48714721  0.23714139  0.81065970     0.15000
F1567       F  0.52387518  0.28471497  0.78280963    -0.12300
F1568       F  0.47780561  0.22296414  0.87131598    -0.12800
F1569       F  0.52451488  0.28945979  0.85865899    -0.15100
F1570       F  0.47416450  0.22052399  0.79523634    -0.13700
F1571       F  0.51351958  0.21261653  0.75046150    -0.13700
F1572       F  0.48544450  0.28438109  0.66211206    -0.15100
C1573       C  0.62545468  0.24610972  0.66914860     0.15000
C1574       C  0.61499156  0.23938944  0.63542118     0.01900
C1575       C  0.62872904  0.23409388  0.60443429     0.16900
C1576       C  0.65237977  0.23536046  0.60710456     0.26300
C1577       C  0.66291786  0.24234175  0.64069374    -0.40000
C1578       C  0.64915721  0.24774529  0.67169129     0.33400
C1579       C  0.58982398  0.23854884  0.63185023     0.02000
F1580       F  0.61921675  0.22834573  0.57102880    -0.12300
F1581       F  0.65862403  0.25417163  0.70477073    -0.12800
C1582       C  0.57664173  0.25780540  0.63988032     0.16900
C1583       C  0.55323364  0.25772462  0.63297468     0.26300
C1584       C  0.54268685  0.23854144  0.61745713    -0.39900
C1585       C  0.55564514  0.21909901  0.61038283     0.33300
C1586       C  0.57894856  0.21897635  0.61799420     0.15000
F1587       F  0.58661528  0.27715703  0.65236095    -0.12300
F1588       F  0.54572575  0.20029996  0.59565660    -0.12800
F1589       F  0.54114008  0.27690473  0.63908840    -0.15100
F1590       F  0.59097851  0.19982083  0.61130508    -0.13700
F1591       F  0.61272243  0.25078656  0.69986674    -0.13700
F1592       F  0.66491893  0.23044192  0.57626225    -0.15100
C1593       C  0.87601438  0.25207079  0.61905887     0.15000
C1594       C  0.88703050  0.25281136  0.65408844     0.01900
C1595       C  0.87392327  0.25318099  0.68705087     0.16900
C1596       C  0.85025493  0.25220484  0.68511565     0.26300
C1597       C  0.83920944  0.25127967  0.65015499    -0.40000
C1598       C  0.85225630  0.25150468  0.61708931     0.33400
C1599       C  0.91214861  0.25283424  0.65672228     0.02000
F1600       F  0.88408878  0.25481493  0.72119447    -0.12300
F1601       F  0.84202112  0.25039489  0.58295421    -0.12800
C1602       C  0.92510832  0.27042410  0.64044999     0.16900
C1603       C  0.94864567  0.27136557  0.64611913     0.26300
C1604       C  0.95943024  0.25481106  0.66824166    -0.39900
C1605       C  0.94659761  0.23691205  0.68354035     0.33300
C1606       C  0.92319348  0.23580474  0.67754515     0.15000
F1607       F  0.91482141  0.28730225  0.62078577    -0.12300
F1608       F  0.95675433  0.22065627  0.70480020    -0.12800
F1609       F  0.96067534  0.28914295  0.63197985    -0.15100
F1610       F  0.91119591  0.21826136  0.69257597    -0.13700
F1611       F  0.88827529  0.25126804  0.58685174    -0.13700
F1612       F  0.83807748  0.25279266  0.71743835    -0.15100
C1613       C  0.58285952  0.27575508  0.92746936     0.15000
C1614       C  0.59154451  0.25808743  0.90569246     0.01900
C1615       C  0.57655845  0.24231868  0.88947925     0.16900
C1616       C  0.55311791  0.24395040  0.89568450     0.26300
C1617       C  0.54439282  0.26155231  0.91794394    -0.40000
C1618       C  0.55953536  0.27756791  0.93336626     0.33400
C1619       C  0.61637023  0.25577261  0.90155020     0.02000
F1620       F  0.58471487  0.22505666  0.86841105    -0.12300
F1621       F  0.55175972  0.29480864  0.95490406    -0.12800
C1622       C  0.62802791  0.23895023  0.92167119     0.16900
C1623       C  0.65173469  0.23787022  0.92036306     0.26300
C1624       C  0.66431871  0.25366997  0.89871846    -0.39900
C1625       C  0.65235563  0.27038048  0.87816070     0.33300
C1626       C  0.62864661  0.27142623  0.87976779     0.15000
F1627       F  0.61643951  0.22397567  0.94360301    -0.12300
F1628       F  0.66350152  0.28605244  0.85696290    -0.12800
F1629       F  0.66226403  0.22142379  0.94067648    -0.15100
F1630       F  0.61760402  0.28792094  0.86032473    -0.13700
F1631       F  0.59711565  0.29076991  0.94426639    -0.13700
F1632       F  0.53923099  0.22758340  0.88182996    -0.15100
C1633       C  0.87491501  0.24050221  0.84960010     0.15000
C1634       C  0.88893675  0.24852027  0.87858490     0.01900
C1635       C  0.87898576  0.25634684  0.91185881     0.16900
C1636       C  0.85531690  0.25630042  0.91600840     0.26300
C1637       C  0.84114022  0.24809480  0.88706404    -0.40000
C1638       C  0.85131696  0.24015038  0.85379337     0.33400
C1639       C  0.91393532  0.24830996  0.87389264     0.02000
F1640       F  0.89220959  0.26432038  0.94016035    -0.12300
F1641       F  0.83847599  0.23239244  0.82484301    -0.12800
C1642       C  0.92416624  0.26130757  0.84535567     0.16900
C1643       C  0.94740048  0.25933770  0.83819835     0.26300
C1644       C  0.96084684  0.24425412  0.85933759    -0.39900
C1645       C  0.95068518  0.23159805  0.88846057     0.33300
C1646       C  0.92745113  0.23381000  0.89592061     0.15000
F1647       F  0.91153404  0.27568415  0.82404289    -0.12300
F1648       F  0.96283597  0.21603193  0.90810678    -0.12800
F1649       F  0.95675825  0.27201317  0.81022385    -0.15100
F1650       F  0.91788398  0.22087002  0.92333920    -0.13700
F1651       F  0.88415943  0.23271774  0.81724341    -0.13700
F1652       F  0.84634773  0.26403454  0.94858481    -0.15100
C1653       C  0.77818008  0.07697759  0.67168077     0.15000
C1654       C  0.75823399  0.08672006  0.65718850     0.01900
C1655       C  0.74019849  0.07244141  0.64630863     0.16900
C1656       C  0.74189793  0.04887455  0.65086307     0.26300
C1657       C  0.76156239  0.03931750  0.66662627    -0.40000
C1658       C  0.77974458  0.05351903  0.67663577     0.33400
C1659       C  0.75615713  0.11177839  0.65481562     0.02000
F1660       F  0.72054993  0.08137738  0.63298769    -0.12300
F1661       F  0.79902708  0.04461530  0.69144154    -0.12800
C1662       C  0.75156734  0.12261454  0.62038961     0.16900
C1663       C  0.75059690  0.14634586  0.61816099     0.26300
C1664       C  0.75436757  0.15967887  0.65033585    -0.39900
C1665       C  0.75869425  0.14871940  0.68484681     0.33300
C1666       C  0.75941200  0.12504897  0.68708098     0.15000
F1667       F  0.74869700  0.11022931  0.58868546    -0.12300
F1668       F  0.76176620  0.16089210  0.71673450    -0.12800
F1669       F  0.74672220  0.15626465  0.58426569    -0.15100
F1670       F  0.76303926  0.11503044  0.72099434    -0.13700
F1671       F  0.79613424  0.09025479  0.68130542    -0.13700
F1672       F  0.72385401  0.03554092  0.64195500    -0.15100
C1673       C  0.72235420  0.08110192  0.86166007     0.15000
C1674       C  0.74104556  0.08940613  0.88203531     0.01900
C1675       C  0.75773638  0.07415262  0.89460968     0.16900
C1676       C  0.75607108  0.05104834  0.88611771     0.26300
C1677       C  0.73758220  0.04283325  0.86517446    -0.40000
C1678       C  0.72067075  0.05800772  0.85324654     0.33400
C1679       C  0.74384334  0.11412945  0.88795815     0.02000
F1680       F  0.77596584  0.08177218  0.91428451    -0.12300
F1681       F  0.70280548  0.05050272  0.83254161    -0.12800
C1682       C  0.72753477  0.12647086  0.90789944     0.16900
C1683       C  0.72967035  0.15003390  0.91174310     0.26300
C1684       C  0.74815918  0.16176870  0.89537366    -0.39900
C1685       C  0.76475653  0.14912115  0.87617807     0.33300
C1686       C  0.76254918  0.12561558  0.87244645     0.15000
F1687       F  0.70944846  0.11566175  0.92353933    -0.12300
F1688       F  0.78316162  0.15944048  0.86067558    -0.12800
F1689       F  0.71327313  0.16132838  0.93066346    -0.15100
F1690       F  0.77837759  0.11412239  0.85253326    -0.13700
F1691       F  0.70631096  0.09553831  0.84831786    -0.13700
F1692       F  0.77327752  0.03702763  0.89617832    -0.15100
C1693       C  0.72497581  0.00749660  0.97443928     0.15000
C1694       C  0.74465525  0.99924270  0.99223063     0.01900
C1695       C  0.76223243  0.99041618  0.96996448     0.16900
C1696       C  0.76034948  0.99020917  0.93075633     0.26300
C1697       C  0.74092242  0.99889018  0.91300839    -0.40000
C1698       C  0.72317402  0.00736965  0.93515199     0.33400
C1699       C  0.75053222  0.00049603  0.53368202     0.02000
F1700       F  0.78132917  0.98208029  0.98626065    -0.12300
F1701       F  0.70411516  0.01556336  0.91858059    -0.12800
C1702       C  0.73387268  0.98983091  0.55598877     0.16900
C1703       C  0.73622442  0.98904592  0.59512988     0.26300
C1704       C  0.75529775  0.99880876  0.61254349    -0.39900
C1705       C  0.77171824  0.00979014  0.59028123     0.33300
C1706       C  0.76927715  0.01078406  0.55125939     0.15000
F1707       F  0.71558129  0.97974808  0.53979569    -0.12300
F1708       F  0.79050248  0.01897427  0.60633142    -0.12800
F1709       F  0.71980837  0.97893756  0.61610302    -0.15100
F1710       F  0.78522045  0.02186176  0.53056329    -0.13700
F1711       F  0.70781272  0.01632916  0.99504194    -0.13700
F1712       F  0.77792574  0.98245081  0.90995505    -0.15100
C1713       C  0.74070751  0.37536908  0.88239913     0.15000
C1714       C  0.75862547  0.38630210  0.90097196     0.01900
C1715       C  0.77595052  0.37331744  0.91729664     0.16900
C1716       C  0.77528909  0.34961488  0.91542698     0.26300
C1717       C  0.75719541  0.33840463  0.89704409    -0.40000
C1718       C  0.73999736  0.35167730  0.88025522     0.33400
C1719       C  0.75868244  0.41122805  0.90493673     0.02000
F1720       F  0.79324089  0.38362665  0.93593564    -0.12300
F1721       F  0.72215778  0.34182322  0.86240936    -0.12800
C1722       C  0.74308103  0.42155885  0.92906937     0.16900
C1723       C  0.74377533  0.44497321  0.93463918     0.26300
C1724       C  0.75999421  0.45846256  0.91599190    -0.39900
C1725       C  0.77532717  0.44820813  0.89117464     0.33300
C1726       C  0.77470139  0.42467978  0.88577435     0.15000
F1727       F  0.72769889  0.40882108  0.94828005    -0.12300
F1728       F  0.79163371  0.46073424  0.87379051    -0.12800
F1729       F  0.72878078  0.45450739  0.95873651    -0.15100
F1730       F  0.78995619  0.41492760  0.86240914    -0.13700
F1731       F  0.72379915  0.38771766  0.86646481    -0.13700
F1732       F  0.79240368  0.33773814  0.93174269    -0.15100
C1733       C  0.72739156  0.37115762  0.63662198     0.15000
C1734       C  0.74749809  0.38385935  0.64090529     0.01900
C1735       C  0.76782281  0.37244272  0.64931908     0.16900
C1736       C  0.76827538  0.34871150  0.65134638     0.26300
C1737       C  0.74828485  0.33601255  0.64604451    -0.40000
C1738       C  0.72775332  0.34744630  0.63953922     0.33400
C1739       C  0.74767397  0.40865318  0.63303427     0.02000
F1740       F  0.78730121  0.38432014  0.65513081    -0.12300
F1741       F  0.70826391  0.33557046  0.63386160    -0.12800
C1742       C  0.73327708  0.42352213  0.65245282     0.16900
C1743       C  0.73238132  0.44657770  0.64256213     0.26300
C1744       C  0.74607889  0.45518273  0.61336767    -0.39900
C1745       C  0.76067429  0.44032931  0.59440959     0.33300
C1746       C  0.76145996  0.41734193  0.60411509     0.24600
F1747       F  0.71985859  0.41564751  0.68065385    -0.12300
F1748       F  0.77409288  0.44806258  0.56609744    -0.12800
F1749       F  0.71725330  0.46013610  0.66018611    -0.15100
F1750       F  0.77508952  0.40333911  0.58418124    -0.13700
F1751       F  0.70761157  0.38162087  0.62764603    -0.13700
F1752       F  0.78823356  0.33811739  0.65866303    -0.15100
C1753       C  0.73326841  0.50853216  0.72396983     0.15000
C1754       C  0.75283075  0.49971715  0.74132792     0.01900
C1755       C  0.77006907  0.49046184  0.71885264     0.16900
C1756       C  0.76765150  0.48980533  0.67977954     0.26300
C1757       C  0.74807616  0.49850821  0.66261639    -0.40000
C1758       C  0.73097334  0.50799876  0.68489737     0.33400
C1759       C  0.75522113  0.50004047  0.78280775     0.02000
F1760       F  0.78908891  0.48174617  0.73482667    -0.12300
F1761       F  0.71181813  0.51624445  0.66869278    -0.12800
C1762       C  0.73908648  0.48910643  0.80575187     0.16900
C1763       C  0.74143842  0.48929268  0.84487520     0.26300
C1764       C  0.76010208  0.50017246  0.86174123    -0.39900
C1765       C  0.77623818  0.51107847  0.83876847     0.33300
C1766       C  0.77373592  0.51115599  0.79967903     0.15000
F1767       F  0.72115614  0.47804238  0.79020972    -0.12300
F1768       F  0.79458782  0.52142898  0.85424001    -0.12800
F1769       F  0.72516426  0.47937661  0.86638385    -0.15100
F1770       F  0.78922870  0.52237400  0.77825949    -0.13700
F1771       F  0.71650146  0.51787069  0.74484654    -0.13700
F1772       F  0.78454355  0.48104842  0.65851888    -0.15100
C1773       C  0.76573098  0.62385811  0.61647372     0.15000
C1774       C  0.74952511  0.61112107  0.63633323     0.01900
C1775       C  0.73413521  0.62237533  0.65975617     0.16900
C1776       C  0.73418297  0.64612937  0.66183891     0.26300
C1777       C  0.74963131  0.65913731  0.64025408    -0.40000
C1778       C  0.76585409  0.64755111  0.61839795     0.33400
C1779       C  0.74742897  0.58638564  0.62974277     0.02000
F1780       F  0.71877654  0.61030605  0.68015913    -0.12300
F1781       F  0.78165749  0.65906041  0.59805771    -0.12800
C1782       C  0.76534764  0.57156920  0.63849014     0.16900
C1783       C  0.76384281  0.54853467  0.62920877     0.26300
C1784       C  0.74444497  0.54003912  0.61092368    -0.39900
C1785       C  0.72654765  0.55483836  0.60229127     0.33300
C1786       C  0.72795146  0.57777914  0.61187092     0.15000
F1787       F  0.78438926  0.57948839  0.65557565    -0.12300
F1788       F  0.70769599  0.54704566  0.58448562    -0.12800
F1789       F  0.78172831  0.53475322  0.63655815    -0.15100
F1790       F  0.71061234  0.59182007  0.60246541    -0.13700
F1791       F  0.78083597  0.61337053  0.59370486    -0.13700
F1792       F  0.71867334  0.65628601  0.68425001    -0.15100
C1793       C  0.77013280  0.87028334  0.65827148     0.15000
C1794       C  0.75255775  0.88317674  0.64250007     0.01900
C1795       C  0.73406512  0.87216774  0.62566443     0.16900
C1796       C  0.73305439  0.84847253  0.62469886     0.26300
C1797       C  0.75059191  0.83534023  0.64073447    -0.40000
C1798       C  0.76919954  0.84659622  0.65748975     0.33400
C1799       C  0.75263429  0.90804409  0.64671562     0.02000
F1800       F  0.71686059  0.88443461  0.61046332    -0.12300
F1801       F  0.78658131  0.83477977  0.67314678    -0.12800
C1802       C  0.76826502  0.92167574  0.62703291     0.16900
C1803       C  0.76966162  0.94499762  0.63423986     0.26300
C1804       C  0.75556290  0.95478765  0.66147722    -0.39900
C1805       C  0.73951292  0.94116518  0.68024865     0.33300
C1806       C  0.73797906  0.91800619  0.67277133     0.15000
F1807       F  0.78256411  0.91224414  0.60172198    -0.12300
F1808       F  0.72570799  0.95024440  0.70665587    -0.12800
F1809       F  0.78567047  0.95766318  0.61638835    -0.15100
F1810       F  0.72293502  0.90504078  0.69231290    -0.13700
F1811       F  0.78792190  0.88068654  0.67542891    -0.13700
F1812       F  0.71461646  0.83847379  0.60882211    -0.15100
C1813       C  0.74533624  0.57509921  0.88238163     0.15000
C1814       C  0.76157633  0.59008373  0.89725113     0.01900
C1815       C  0.77986266  0.58145370  0.91809295     0.16900
C1816       C  0.78149105  0.55820083  0.92504919     0.26300
C1817       C  0.76483730  0.54320768  0.91135692    -0.40000
C1818       C  0.74689442  0.55179048  0.88946376     0.33400
C1819       C  0.75881801  0.61481990  0.89297485     0.02000
F1820       F  0.79556181  0.59567855  0.93319451    -0.12300
F1821       F  0.73012721  0.53790914  0.87691873    -0.12800
C1822       C  0.74015986  0.62567738  0.90928515     0.16900
C1823       C  0.73800870  0.64922906  0.90695843     0.26300
C1824       C  0.75459257  0.66241357  0.88827241    -0.39900
C1825       C  0.77319292  0.65131750  0.87158988     0.33300
C1826       C  0.77526140  0.62775293  0.87404913     0.15000
F1827       F  0.72432293  0.61348399  0.92846010    -0.12300
F1828       F  0.78973322  0.66321111  0.85358542    -0.12800
F1829       F  0.71968552  0.65903112  0.92317894    -0.15100
F1830       F  0.79340586  0.61750793  0.85803951    -0.13700
F1831       F  0.72766059  0.58316742  0.86183411    -0.13700
F1832       F  0.79909270  0.55033365  0.94599168    -0.15100
C1833       C  0.72904514  0.87233255  0.85237260     0.15000
C1834       C  0.74631169  0.88579826  0.86802213     0.01900
C1835       C  0.76448500  0.87521134  0.88660250     0.16900
C1836       C  0.76525824  0.85155771  0.89002157     0.26300
C1837       C  0.74779793  0.83793910  0.87487243    -0.40000
C1838       C  0.72974039  0.84867887  0.85572107     0.33400
C1839       C  0.74549245  0.91087656  0.86475104     0.02000
F1840       F  0.78138866  0.88786071  0.90196394    -0.12300
F1841       F  0.71250407  0.83638703  0.84055038    -0.12800
C1842       C  0.72711947  0.92307114  0.87963579     0.16900
C1843       C  0.72625786  0.94673602  0.87599345     0.26300
C1844       C  0.74363491  0.95846758  0.85713411    -0.39900
C1845       C  0.76205137  0.94632471  0.84249890     0.33300
C1846       C  0.76303153  0.92273849  0.84639355     0.15000
F1847       F  0.70990528  0.91200917  0.89733390    -0.12300
F1848       F  0.77892709  0.95734994  0.82384159    -0.12800
F1849       F  0.70792154  0.95805843  0.88913225    -0.15100
F1850       F  0.78069124  0.91137227  0.83099522    -0.13700
F1851       F  0.71160901  0.88209821  0.83333360    -0.13700
F1852       F  0.78329209  0.84205482  0.90781529    -0.15100
C1853       C  0.57980375  0.74454143  0.94317493     0.15000
C1854       C  0.58948267  0.75610520  0.91244491     0.01900
C1855       C  0.57561959  0.77045770  0.89058630     0.16900
C1856       C  0.55272026  0.77354059  0.89976056     0.26300
C1857       C  0.54294402  0.76159222  0.93002863    -0.40000
C1858       C  0.55678076  0.74707129  0.95162638     0.33400
C1859       C  0.61422483  0.75409490  0.90461953     0.02000
F1860       F  0.58429221  0.78164549  0.86039177    -0.12300
F1861       F  0.54801891  0.73528510  0.98113921    -0.12800
C1862       C  0.62453964  0.73266237  0.90123210     0.16900
C1863       C  0.64810285  0.73088669  0.89665235     0.26300
C1864       C  0.66167179  0.75051760  0.89429099    -0.39900
C1865       C  0.65130492  0.77190374  0.89656889     0.33300
C1866       C  0.62790056  0.77367917  0.90215947     0.15000
F1867       F  0.61176548  0.71343731  0.90209164    -0.12300
F1868       F  0.66403021  0.79115509  0.89513490    -0.12800
F1869       F  0.65760312  0.71001542  0.89382535    -0.15100
F1870       F  0.61875042  0.79458810  0.90668772    -0.13700
F1871       F  0.59282124  0.73131759  0.96586402    -0.13700
F1872       F  0.54045835  0.78896826  0.88000747    -0.15100
C1873       C  0.62383216  0.74636228  0.66904777     0.15000
C1874       C  0.61180062  0.75029327  0.63556496     0.01900
C1875       C  0.62392987  0.75352717  0.60194964     0.16900
C1876       C  0.64767968  0.75289654  0.60182803     0.26300
C1877       C  0.65976466  0.74883305  0.63531406    -0.40000
C1878       C  0.64758102  0.74556977  0.66892743     0.33400
C1879       C  0.58661580  0.75022220  0.63518668     0.02000
F1880       F  0.61271402  0.75665646  0.56898280    -0.12300
F1881       F  0.65868700  0.74221615  0.70191711    -0.12800
C1882       C  0.57461557  0.76902274  0.62106561     0.16900
C1883       C  0.55109149  0.76777760  0.61601788     0.26300
C1884       C  0.53917220  0.74801460  0.62614590    -0.39900
C1885       C  0.55088677  0.72973677  0.64229076     0.33300
C1886       C  0.57448579  0.73074331  0.64654722     0.15000
F1887       F  0.58577912  0.78839168  0.61142519    -0.12300
F1888       F  0.53962206  0.71038055  0.65166444    -0.12800
F1889       F  0.53997593  0.78564345  0.60042386    -0.15100
F1890       F  0.58563274  0.71220152  0.65966195    -0.13700
F1891       F  0.61256413  0.74362207  0.70199855    -0.13700
F1892       F  0.65881568  0.75553223  0.56872655    -0.15100
C1893       C  0.50778681  0.77136768  0.73225519     0.15000
C1894       C  0.49902201  0.75478754  0.75686550     0.01900
C1895       C  0.48912466  0.73505436  0.74187451     0.16900
C1896       C  0.48852362  0.73167081  0.70304452     0.26300
C1897       C  0.49746623  0.74813385  0.67844132    -0.40000
C1898       C  0.50684469  0.76812622  0.69337135     0.33400
C1899       C  0.50021209  0.75783683  0.79815110     0.02000
F1900       F  0.47987102  0.71911014  0.76494498    -0.12300
F1901       F  0.51467444  0.78472132  0.67020345    -0.12800
C1902       C  0.48997192  0.77663356  0.81526583     0.16900
C1903       C  0.49019506  0.77878516  0.85436902     0.26300
C1904       C  0.50047548  0.76210963  0.87702579    -0.39900
C1905       C  0.51097351  0.74350157  0.85992113     0.33300
C1906       C  0.51102429  0.74148623  0.82080719     0.15000
F1907       F  0.47936439  0.79267182  0.79417207    -0.12300
F1908       F  0.52083647  0.72709763  0.88118240    -0.12800
F1909       F  0.48069560  0.79735447  0.87020093    -0.15100
F1910       F  0.52173762  0.72359188  0.80494668    -0.13700
F1911       F  0.51758062  0.79053105  0.74587865    -0.13700
F1912       F  0.47964702  0.71207549  0.68948912    -0.15100
C1913       C  0.41870595  0.71823599  0.62872363     0.15000
C1914       C  0.40793168  0.73790359  0.64199716     0.01900
C1915       C  0.42125651  0.75714190  0.65031980     0.16900
C1916       C  0.44472344  0.75691686  0.64443294     0.26300
C1917       C  0.45515773  0.73773123  0.62912827    -0.40000
C1918       C  0.44203865  0.71831748  0.62165674     0.33400
C1919       C  0.38276488  0.73890395  0.64456174     0.02000
F1920       F  0.41140011  0.77666410  0.66189525    -0.12300
F1921       F  0.45180952  0.69953138  0.60694982    -0.12800
C1922       C  0.37203738  0.74662850  0.67733915     0.16900
C1923       C  0.34839107  0.74878410  0.67868730     0.26300
C1924       C  0.33492860  0.74280599  0.64750397    -0.39900
C1925       C  0.34569068  0.73451036  0.61507270     0.33300
C1926       C  0.36930724  0.73288554  0.61346586     0.15000
F1927       F  0.38444649  0.75188220  0.70827679    -0.12300
F1928       F  0.33345041  0.72861408  0.58425484    -0.12800
F1929       F  0.33869145  0.75635286  0.71079950    -0.15100
F1930       F  0.37905412  0.72614892  0.58086525    -0.13700
F1931       F  0.40655213  0.69905938  0.62191045    -0.13700
F1932       F  0.45698978  0.77601900  0.65113462    -0.15100
C1933       C  0.23288945  0.87481446  0.64464021     0.15000
C1934       C  0.25286029  0.88588562  0.65623220     0.01900
C1935       C  0.27205060  0.87280933  0.66511709     0.16900
C1936       C  0.27120495  0.84909569  0.66293260     0.26300
C1937       C  0.25107984  0.83789790  0.65187684    -0.40000
C1938       C  0.23195167  0.85110408  0.64258791     0.33400
C1939       C  0.25325742  0.91093157  0.66103596     0.02000
F1940       F  0.29146169  0.88297099  0.67708266    -0.12300
F1941       F  0.21203995  0.84110704  0.63266760    -0.12800
C1942       C  0.23807949  0.92124298  0.68605474     0.16900
C1943       C  0.23900484  0.94464137  0.69223028     0.26300
C1944       C  0.25503538  0.95827167  0.67336756    -0.39900
C1945       C  0.26999251  0.94806786  0.64784579     0.33300
C1946       C  0.26913286  0.92457641  0.64177094     0.15000
F1947       F  0.22289138  0.90848610  0.70565938    -0.12300
F1948       F  0.28624016  0.96059966  0.63034487    -0.12800
F1949       F  0.22437842  0.95398799  0.71712582    -0.15100
F1950       F  0.28399037  0.91509716  0.61741241    -0.13700
F1951       F  0.21418025  0.88702722  0.63543492    -0.13700
F1952       F  0.29016426  0.83713506  0.67165176    -0.15100
C1953       C  0.37369621  0.77365439  0.88266684     0.15000
C1954       C  0.38608807  0.75972814  0.90728090     0.01900
C1955       C  0.37449275  0.74352300  0.92908120     0.16900
C1956       C  0.35087049  0.74133969  0.92664255     0.26300
C1957       C  0.33818245  0.75546275  0.90234398    -0.40000
C1958       C  0.35002490  0.77155494  0.88009202     0.33400
C1959       C  0.41100336  0.76256290  0.91155057     0.02000
F1960       F  0.38604800  0.73019204  0.95369447    -0.12300
F1961       F  0.33878198  0.78558333  0.85615806    -0.12800
C1962       C  0.41995366  0.78253512  0.92719492     0.16900
C1963       C  0.44318225  0.78431662  0.93504560     0.26300
C1964       C  0.45791615  0.76633664  0.92678598    -0.39900
C1965       C  0.44912034  0.74666804  0.90987962     0.33300
C1966       C  0.42581199  0.74476415  0.90246737     0.15000
F1967       F  0.40602169  0.79991850  0.93642899    -0.12300
F1968       F  0.46286457  0.72881584  0.90250710    -0.12800
F1969       F  0.45130014  0.80350232  0.95128245    -0.15100
F1970       F  0.41757172  0.72534887  0.88716617    -0.13700
F1971       F  0.38456654  0.78932819  0.86106746    -0.13700
F1972       F  0.34050435  0.72545525  0.94847874    -0.15100
C1973       C  0.26482043  0.87507697  0.89860699     0.15000
C1974       C  0.24409301  0.88576195  0.89036239     0.01900
C1975       C  0.22440156  0.87249441  0.88593735     0.16900
C1976       C  0.22545868  0.84888795  0.88939212     0.26300
C1977       C  0.24628098  0.83819840  0.89660899    -0.40000
C1978       C  0.26593864  0.85142418  0.90143838     0.33400
C1979       C  0.24320414  0.91060559  0.88448126     0.02000
F1980       F  0.20433531  0.88234564  0.87677800    -0.12300
F1981       F  0.28611717  0.84143572  0.90942563    -0.12800
C1982       C  0.25596056  0.92068326  0.85555699     0.16900
C1983       C  0.25456435  0.94398194  0.84878696     0.26300
C1984       C  0.24030348  0.95764715  0.87070054    -0.39900
C1985       C  0.22741448  0.94754740  0.89955044     0.33300
C1986       C  0.22900017  0.92420945  0.90655989     0.15000
F1987       F  0.26920719  0.90780144  0.83300686    -0.12300
F1988       F  0.21243286  0.95995529  0.91966412    -0.12800
F1989       F  0.26704579  0.95320157  0.82048889    -0.15100
F1990       F  0.21647296  0.91481102  0.93462482    -0.13700
F1991       F  0.28394628  0.88759604  0.90391308    -0.13700
F1992       F  0.20634281  0.83636478  0.88398278    -0.15100
C1993       C  0.12400412  0.73272355  0.67844384     0.15000
C1994       C  0.11114233  0.74840313  0.65787970     0.01900
C1995       C  0.12217901  0.76516093  0.63652967     0.16900
C1996       C  0.14591879  0.76599625  0.63517013     0.26300
C1997       C  0.15904728  0.75010606  0.65549781    -0.40000
C1998       C  0.14767997  0.73352651  0.67740431     0.33400
C1999       C  0.08616171  0.74736559  0.65963531     0.02000
F2000       F  0.10991974  0.78061942  0.61677947    -0.12300
F2001       F  0.15934007  0.71792103  0.69785103    -0.12800
C2002       C  0.07423953  0.76316645  0.68122622     0.16900
C2003       C  0.05086977  0.76066899  0.68654474     0.26300
C2004       C  0.03908871  0.74256267  0.66978748    -0.39900
C2005       C  0.05088287  0.72723345  0.64703732     0.33300
C2006       C  0.07434094  0.72953765  0.64220764     0.15000
F2007       F  0.08541932  0.78044615  0.69837068    -0.12300
F2008       F  0.03991584  0.70937790  0.63120104    -0.12800
F2009       F  0.03972821  0.77578544  0.70838436    -0.15100
F2010       F  0.08566931  0.71405532  0.62136801    -0.13700
F2011       F  0.11354277  0.71675694  0.70003154    -0.13700
F2012       F  0.15594330  0.78246351  0.61409310    -0.15100
C2013       C  0.87301468  0.76156203  0.65303887     0.15000
C2014       C  0.88428380  0.74394362  0.63444370     0.01900
C2015       C  0.87166908  0.72879023  0.61236449     0.16900
C2016       C  0.84802120  0.73047393  0.61038991     0.26300
C2017       C  0.83645072  0.74732311  0.63079612    -0.40000
C2018       C  0.84937483  0.76333436  0.65113014     0.33400
C2019       C  0.90891816  0.74047586  0.64038772     0.02000
F2020       F  0.88227153  0.71205103  0.59319688    -0.12300
F2021       F  0.83920905  0.78054131  0.66982012    -0.12800
C2022       C  0.91667164  0.72040285  0.65759163     0.16900
C2023       C  0.93957162  0.71800941  0.66711607     0.26300
C2024       C  0.95508944  0.73553190  0.65924021    -0.39900
C2025       C  0.94751120  0.75529164  0.64097344     0.33300
C2026       C  0.92458759  0.75774012  0.63157730     0.15000
F2027       F  0.90184965  0.70358586  0.66686807    -0.12300
F2028       F  0.96202221  0.77280440  0.63436541    -0.12800
F2029       F  0.94654256  0.69878277  0.68479421    -0.15100
F2030       F  0.91756013  0.77720908  0.61474024    -0.13700
F2031       F  0.88482893  0.77647540  0.67455559    -0.13700
F2032       F  0.83650475  0.71508237  0.58939645    -0.15100
C2033       C  0.07950830  0.74134173  0.84555151     0.15000
C2034       C  0.08895842  0.75278210  0.87647582     0.01900
C2035       C  0.07491526  0.76683435  0.89818750     0.16900
C2036       C  0.05211522  0.76995031  0.88846567     0.26300
C2037       C  0.04269601  0.75844044  0.85764942    -0.40000
C2038       C  0.05657885  0.74403503  0.83640584     0.33400
C2039       C  0.11370729  0.75131504  0.88438171     0.02000
F2040       F  0.08337165  0.77782298  0.92859673    -0.12300
F2041       F  0.04794423  0.73265514  0.80652217    -0.12800
C2042       C  0.12684133  0.77125048  0.88665993     0.16900
C2043       C  0.15027450  0.77009869  0.89220372     0.26300
C2044       C  0.16123024  0.74899577  0.89455476    -0.39900
C2045       C  0.14817440  0.72900066  0.89262057     0.33300
C2046       C  0.12455917  0.73015630  0.88804811     0.15000
F2047       F  0.11713253  0.79192235  0.88187863    -0.12300
F2048       F  0.15822864  0.70838405  0.89570818    -0.12800
F2049       F  0.16244309  0.78970606  0.89335324    -0.15100
F2050       F  0.11227335  0.71061792  0.88735052    -0.13700
F2051       F  0.09267541  0.72822921  0.82325099    -0.13700
F2052       F  0.03960642  0.78507317  0.90810574    -0.15100
C2053       C  0.92564435  0.74209919  0.87954844     0.15000
C2054       C  0.91099499  0.76034622  0.87184592     0.01900
C2055       C  0.92016277  0.78079118  0.85792363     0.16900
C2056       C  0.94347085  0.78279371  0.85113232     0.26300
C2057       C  0.95802758  0.76443051  0.85821633    -0.40000
C2058       C  0.94897874  0.74413969  0.87283570     0.33400
C2059       C  0.88609214  0.75783900  0.87688860     0.02000
F2060       F  0.90639970  0.79852939  0.84947025    -0.12300
F2061       F  0.96253781  0.72590428  0.87878823    -0.12800
C2062       C  0.87412915  0.77260655  0.90044728     0.16900
C2063       C  0.85050307  0.77085532  0.90394655     0.26300
C2064       C  0.83825259  0.75427080  0.88376689    -0.39900
C2065       C  0.85048527  0.73920004  0.86066129     0.33300
C2066       C  0.87406986  0.74104867  0.85723389     0.15000
F2067       F  0.88538497  0.78878802  0.92017065    -0.12300
F2068       F  0.83971424  0.72272827  0.84083853    -0.12800
F2069       F  0.83968764  0.78570065  0.92669729    -0.15100
F2070       F  0.88511082  0.72682420  0.83366097    -0.13700
F2071       F  0.91728270  0.72217644  0.89307992    -0.13700
F2072       F  0.95184246  0.80262996  0.83725462    -0.15100
C2073       C  0.01019295  0.73191425  0.96154172     0.15000
C2074       C  0.00118311  0.74791801  0.98662687     0.01900
C2075       C  0.99141135  0.76786744  0.97210620     0.16900
C2076       C  0.99095649  0.77191064  0.93339799     0.26300
C2077       C  0.00006417  0.75602219  0.90842534    -0.40000
C2078       C  0.00957713  0.73593417  0.92274075     0.33400
C2079       C  0.00015622  0.74471862  0.53425682     0.02000
F2080       F  0.98206523  0.78336387  0.99545961    -0.12300
F2081       F  0.01810083  0.72017694  0.89902814    -0.12800
C2082       C  0.00976535  0.76147548  0.55743679     0.16900
C2083       C  0.00916784  0.75912147  0.59654860     0.26300
C2084       C  0.99915461  0.73986990  0.61316346    -0.39900
C2085       C  0.99007636  0.72284426  0.59000469     0.33300
C2086       C  0.99052620  0.72525079  0.55088179     0.15000
F2087       F  0.01966849  0.78018891  0.54211413    -0.12300
F2088       F  0.98082831  0.70383971  0.60541432    -0.12800
F2089       F  0.01760803  0.77602981  0.61824589    -0.15100
F2090       F  0.98099771  0.70886417  0.52925285    -0.13700
F2091       F  0.01991570  0.71257442  0.97463680    -0.13700
F2092       F  0.98225750  0.79170503  0.92024201    -0.15100
C2093       C  0.24338558  0.42099659  0.93188056     0.15000
C2094       C  0.25359936  0.41130533  0.90021174     0.01900
C2095       C  0.26540509  0.42547530  0.87490075     0.16900
C2096       C  0.26795069  0.44871222  0.88218302     0.26300
C2097       C  0.25807993  0.45830730  0.91434934    -0.40000
C2098       C  0.24540409  0.44422435  0.93864763     0.33400
C2099       C  0.25326717  0.38626596  0.89537526     0.02000
F2100       F  0.27500349  0.41667091  0.84359326    -0.12300
F2101       F  0.23546180  0.45286897  0.96981012    -0.12800
C2102       C  0.23263267  0.37416754  0.89549209     0.16900
C2103       C  0.23249852  0.35041448  0.89433632     0.26300
C2104       C  0.25298820  0.33829618  0.89234247    -0.39900
C2105       C  0.27360716  0.35043813  0.89125020     0.33300
C2106       C  0.27374567  0.37416270  0.89314382     0.15000
F2107       F  0.21256892  0.38538993  0.89667331    -0.12300
F2108       F  0.29371943  0.33930402  0.89001126    -0.12800
F2109       F  0.21228647  0.33926783  0.89451803    -0.15100
F2110       F  0.29396756  0.38527584  0.89441267    -0.13700
F2111       F  0.23240801  0.40777067  0.95743796    -0.13700
F2112       F  0.28134199  0.46132114  0.85913923    -0.15100
C2113       C  0.28064700  0.58128309  0.92501323     0.15000
C2114       C  0.26088373  0.59051840  0.90909814     0.01900
C2115       C  0.24364298  0.57587888  0.89641411     0.16900
C2116       C  0.24579111  0.55237635  0.90083357     0.26300
C2117       C  0.26538511  0.54316277  0.91747254    -0.40000
C2118       C  0.28287596  0.55783115  0.92916456     0.33400
C2119       C  0.25793905  0.61542489  0.90735501     0.02000
F2120       F  0.22418946  0.58440972  0.88163364    -0.12300
F2121       F  0.30201235  0.54943844  0.94527049    -0.12800
C2122       C  0.25423281  0.62646283  0.87282890     0.16900
C2123       C  0.25201041  0.65007689  0.87131589     0.26300
C2124       C  0.25386255  0.66303741  0.90426786    -0.39900
C2125       C  0.25728682  0.65192081  0.93885129     0.33300
C2126       C  0.25909353  0.62831568  0.94040740     0.15000
F2127       F  0.25340987  0.61442004  0.84045860    -0.12300
F2128       F  0.25836539  0.66387406  0.97130869    -0.12800
F2129       F  0.24885825  0.66032165  0.83747095    -0.15100
F2130       F  0.26168559  0.61797831  0.97431917    -0.13700
F2131       F  0.29770363  0.59504441  0.93697060    -0.13700
F2132       F  0.22802732  0.53883934  0.89137044    -0.15100
C2133       C  0.22006255  0.58035767  0.60963608     0.15000
C2134       C  0.23705489  0.58997653  0.63214419     0.01900
C2135       C  0.25424151  0.57623444  0.64716752     0.16900
C2136       C  0.25497139  0.55316369  0.63843908     0.26300
C2137       C  0.23831676  0.54363543  0.61493839    -0.40000
C2138       C  0.22066293  0.55731367  0.60112652     0.33400
C2139       C  0.23829447  0.61471560  0.63632787     0.02000
F2140       F  0.27098617  0.58546601  0.66849079    -0.12300
F2141       F  0.20420144  0.54837994  0.57886210    -0.12800
C2142       C  0.23267256  0.62504759  0.67037644     0.16900
C2143       C  0.23424609  0.64862837  0.67397429     0.26300
C2144       C  0.24175191  0.66211955  0.64353784    -0.39900
C2145       C  0.24735089  0.65148410  0.60940983     0.33300
C2146       C  0.24551487  0.62801870  0.60588097     0.15000
F2147       F  0.22554135  0.61227926  0.69996989    -0.12300
F2148       F  0.25426807  0.66375533  0.57909981    -0.12800
F2149       F  0.22879623  0.65814230  0.70738135    -0.15100
F2150       F  0.25099042  0.61817204  0.57272327    -0.13700
F2151       F  0.20328780  0.59347150  0.59505825    -0.13700
F2152       F  0.27268303  0.54054522  0.65095809    -0.15100
C2153       C  0.26438199  0.37717692  0.65206423     0.15000
C2154       C  0.24731375  0.38794454  0.63125791     0.01900
C2155       C  0.23042209  0.37494327  0.61380446     0.16900
C2156       C  0.23077559  0.35130042  0.61646149     0.26300
C2157       C  0.24816524  0.34019270  0.63671308    -0.40000
C2158       C  0.26481460  0.35351260  0.65494110     0.33400
C2159       C  0.24762338  0.41271806  0.62607922     0.02000
F2160       F  0.21388520  0.38519723  0.59330617    -0.12300
F2161       F  0.28185063  0.34374171  0.67491457    -0.12800
C2162       C  0.26345842  0.42268430  0.60161994     0.16900
C2163       C  0.26265374  0.44592624  0.59410408     0.26300
C2164       C  0.24608148  0.45949485  0.61118148    -0.39900
C2165       C  0.23040257  0.44953525  0.63601403     0.33300
C2166       C  0.23122536  0.42625620  0.64349964     0.15000
F2167       F  0.27916000  0.40973004  0.58403227    -0.12300
F2168       F  0.21356214  0.46207125  0.65136993    -0.12800
F2169       F  0.27790789  0.45517767  0.56984082    -0.15100
F2170       F  0.21573209  0.41678978  0.66707266    -0.13700
F2171       F  0.28072279  0.38963931  0.66938616    -0.13700
F2172       F  0.21409442  0.33939075  0.59897373    -0.15100
C2173       C  0.27042201  0.51183344  0.80138768     0.15000
C2174       C  0.25031030  0.50303694  0.78568157     0.01900
C2175       C  0.23329277  0.49466018  0.80986311     0.16900
C2176       C  0.23674838  0.49427627  0.84885839     0.26300
C2177       C  0.25713081  0.50245841  0.86429870    -0.40000
C2178       C  0.27376261  0.51157668  0.84029361     0.33400
C2179       C  0.24764201  0.50185853  0.74414025     0.02000
F2180       F  0.21361838  0.48622527  0.79566846    -0.12300
F2181       F  0.29366000  0.51940633  0.85456864    -0.12800
C2182       C  0.26393285  0.49052041  0.72238483     0.16900
C2183       C  0.26223656  0.49022383  0.68318339     0.26300
C2184       C  0.24395050  0.50084794  0.66488808    -0.39900
C2185       C  0.22720848  0.51148936  0.68667647     0.33300
C2186       C  0.22915721  0.51221928  0.72589061     0.15000
F2187       F  0.28154720  0.47967057  0.73919676    -0.12300
F2188       F  0.20888261  0.52108499  0.66991272    -0.12800
F2189       F  0.27885980  0.48013837  0.66301267    -0.15100
F2190       F  0.21326640  0.52351835  0.74594300    -0.13700
F2191       F  0.28692326  0.52059030  0.77894821    -0.13700
F2192       F  0.22020564  0.48602210  0.87166638    -0.15100
loop_ 
_geom_bond_atom_site_label_1 
_geom_bond_atom_site_label_2 
_geom_bond_distance 
_geom_bond_site_symmetry_2 
_ccdc_geom_bond_type 
N1            C5   1.358       .  A
N1            C2   1.356       .  A
N1         C1088   1.443       .  S
C2            C3   1.382       .  A
C2         C1068   1.477       .  S
C3            C4   1.375       .  A
C3            H6   1.082       .  S
C4            C5   1.384       .  A
C4            H7   1.082       .  S
C5         C1041   1.481       .  S
N8           C12   1.358       .  A
N8            C9   1.359       .  A
N8         C1081   1.442       .  S
C9           C10   1.383       .  A
C9         C1001   1.481       .  S
C10          C11   1.373       .  A
C10          H13   1.082       .  S
C11          C12   1.382       .  A
C11          H14   1.082       .  S
C12        C1021   1.482       .  S
N15          C19   1.358       .  A
N15          C16   1.359   1_655  A
N15         C981   1.443       .  S
C16          C17   1.384       .  A
C16         C941   1.483       .  S
C17          C18   1.376   1_455  A
C17          H20   1.082       .  S
C18          C19   1.382       .  A
C18          H21   1.082       .  S
C19         C961   1.480       .  S
N22          C26   1.360   1_655  A
N22          C23   1.357       .  A
N22         C988   1.443       .  S
C23          C24   1.381       .  A
C23         C928   1.479       .  S
C24          C25   1.373   1_655  A
C24          H27   1.082       .  S
C25          C26   1.385       .  A
C25          H28   1.082       .  S
C26         C908   1.483       .  S
Zn29         O33   1.957       .  S
Zn29         O34   2.027       .  S
Zn29         O38   2.016       .  S
Zn29         O45   2.032       .  S
Zn30         O33   1.973       .  S
Zn30         O35   2.033       .  S
Zn30         O37   2.031       .  S
Zn30         O41   2.023       .  S
Zn31         O33   1.969       .  S
Zn31         O36   2.033       .  S
Zn31         O39   2.007       .  S
Zn31         O42   2.018       .  S
Zn32         O33   1.967       .  S
Zn32         O40   2.025       .  S
Zn32         O43   2.026       .  S
Zn32         O44   2.023       .  S
O34          C46   1.275       .  A
O35          C47   1.275       .  A
O36          C48   1.274       .  A
O37          C46   1.274       .  A
O38          C48   1.274       .  A
O39          C47   1.272       .  A
O40          C49   1.274       .  A
O41          C50   1.275       .  A
O42          C49   1.273       .  A
O43          C50   1.275       .  A
O44          C51   1.274       .  A
O45          C51   1.276       .  A
C46        C1028   1.483       .  S
C47         C948   1.476       .  S
C48        C1170   1.473       .  S
C49         C881   1.477       .  S
C50          C70   1.472       .  S
C51         C861   1.493       .  S
Zn52         O56   1.953       .  S
Zn52         O57   2.012       .  S
Zn52         O61   2.009       .  S
Zn52         O68   2.008       .  S
Zn53         O56   1.959       .  S
Zn53         O58   2.019       .  S
Zn53         O60   2.023       .  S
Zn53         O64   2.001       .  S
Zn54         O56   1.959       .  S
Zn54         O59   2.017       .  S
Zn54         O62   2.024       .  S
Zn54         O65   2.011       .  S
Zn55         O56   1.975       .  S
Zn55         O63   2.034       .  S
Zn55         O66   2.032       .  S
Zn55         O67   2.036       .  S
O57          C69   1.273       .  A
O58          C70   1.273       .  A
O59          C71   1.273       .  A
O60          C69   1.273       .  A
O61          C71   1.273       .  A
O62          C70   1.274       .  A
O63          C72   1.276       .  A
O64          C73   1.273       .  A
O65          C72   1.274       .  A
O66          C73   1.276       .  A
O67          C74   1.275       .  A
O68          C74   1.272       .  A
C69        C1048   1.487       .  S
C71         C828   1.480       .  S
C72         C841   1.491       .  S
C73         C901   1.485       .  S
C74        C1144   1.471       .  S
N75          C79   1.354       .  A
N75          C76   1.356       .  A
N75         C801   1.440       .  S
C76          C77   1.383       .  A
C76         C821   1.477       .  S
C77          C78   1.375       .  A
C77          H80   1.082       .  S
C78          C79   1.380       .  A
C78          H81   1.081       .  S
C79         C788   1.471       .  S
N82          C86   1.358       .  A
N82          C83   1.358       .  A
N82         C808   1.438       .  S
C83          C84   1.383       .  A
C83         C761   1.488       .  S
C84          C85   1.379       .  A
C84          H87   1.082       .  S
C85          C86   1.384       .  A
C85          H88   1.082       .  S
C86         C868   1.488       .  S
Zn89         O93   1.971       .  S
Zn89         O94   2.035       .  S
Zn89         O98   2.024       .  S
Zn89        O105   2.040       .  S
Zn90         O93   1.963       .  S
Zn90         O95   2.024       .  S
Zn90         O97   2.019       .  S
Zn90        O101   1.998       .  S
Zn91         O93   1.964       .  S
Zn91         O96   2.023       .  S
Zn91         O99   2.026       .  S
Zn91        O102   2.031       .  S
Zn92         O93   1.960       .  S
Zn92        O100   2.025       .  S
Zn92        O103   2.021       .  S
Zn92        O104   2.007       .  S
O94         C106   1.275       .  A
O95         C107   1.273       .  A
O96         C108   1.275       .  A
O97         C106   1.272       .  A
O98         C108   1.275       .  A
O99         C107   1.275       .  A
O100        C109   1.273       .  A
O101        C110   1.271       .  A
O102        C109   1.274       .  A
O103        C110   1.274       .  A
O104        C111   1.273       .  A
O105        C111   1.276       .  A
C106       C1227   1.464       .  S
C107        C768   1.478       .  S
C108        C741   1.487       .  S
C109        C133   1.466       .  S
C110        C728   1.487       .  S
C111        C968   1.494       .  S
Zn112       O116   1.962       .  S
Zn112       O117   2.018       .  S
Zn112       O121   2.027       .  S
Zn112       O128   2.022       .  S
Zn113       O116   1.962       .  S
Zn113       O118   2.022       .  S
Zn113       O120   2.015       .  S
Zn113       O124   2.036       .  S
Zn114       O116   1.970       .  S
Zn114       O119   2.031       .  S
Zn114       O122   2.026       .  S
Zn114       O125   2.031       .  S
Zn115       O116   1.965       .  S
Zn115       O123   2.006       .  S
Zn115       O126   2.020       .  S
Zn115       O127   2.027       .  S
O117        C129   1.274       .  A
O118        C130   1.275       .  A
O119        C131   1.273       .  A
O120        C129   1.274       .  A
O121        C131   1.273       .  A
O122        C130   1.275       .  A
O123        C132   1.273       .  A
O124        C133   1.274       .  A
O125        C132   1.276       .  A
O126        C133   1.272       .  A
O127        C134   1.274       .  A
O128        C134   1.275       .  A
C129        C921   1.489       .  S
C130        C701   1.488       .  S
C131       C1202   1.467   1_554  S
C132        C781   1.482       .  S
C134        C681   1.493       .  S
N135        C139   1.357       .  A
N135        C136   1.356       .  A
N135        C661   1.441       .  S
C136        C137   1.383       .  A
C136        C688   1.479       .  S
C137        C138   1.376       .  A
C137        H140   1.082       .  S
C138        C139   1.383       .  A
C138        H141   1.082       .  S
C139        C648   1.480       .  S
N142        C146   1.357       .  A
N142        C143   1.358       .  A
N142        C668   1.445       .  S
C143        C144   1.382       .  A
C143        C721   1.475       .  S
C144        C145   1.372       .  A
C144        H147   1.082       .  S
C145        C146   1.383       .  A
C145        H148   1.082       .  S
C146        C628   1.475       .  S
N149        C153   1.360   1_545  A
N149        C150   1.356       .  A
N149        C601   1.441       .  S
C150        C151   1.380       .  A
C150        C581   1.480       .  S
C151        C152   1.375   1_545  A
C151        H154   1.082       .  S
C152        C153   1.386       .  A
C152        H155   1.082       .  S
C153        C748   1.489       .  S
N156        C160   1.358   1_565  A
N156        C157   1.360       .  A
N156        C608   1.446   1_565  S
C157        C158   1.383       .  A
C157        C708   1.481       .  S
C158        C159   1.373   1_565  A
C158        H161   1.082       .  S
C159        C160   1.381       .  A
C159        H162   1.082       .  S
C160        C561   1.475       .  S
Zn163       O167   1.950       .  S
Zn163       O168   2.003       .  S
Zn163       O172   2.018       .  S
Zn163       O179   2.017       .  S
Zn164       O167   1.961       .  S
Zn164       O169   2.001       .  S
Zn164       O171   2.021       .  S
Zn164       O175   2.020       .  S
Zn165       O167   1.966       .  S
Zn165       O170   2.026       .  S
Zn165       O173   2.027       .  S
Zn165       O176   2.017       .  S
Zn166       O167   1.957       .  S
Zn166       O174   2.010       .  S
Zn166       O177   2.014       .  S
Zn166       O178   2.014       .  S
O168        C180   1.273       .  A
O169        C181   1.272       .  A
O170        C182   1.274       .  A
O171        C180   1.273       .  A
O172        C182   1.274       .  A
O173        C181   1.275       .  A
O174        C183   1.273       .  A
O175        C184   1.274       .  A
O176        C183   1.274       .  A
O177        C184   1.273       .  A
O178        C185   1.272       .  A
O179        C185   1.274       .  A
C180        C541   1.477       .  S
C181        C621   1.484       .  S
C182        C207   1.472       .  S
C183        C528   1.489       .  S
C184       C1301   1.468       .  S
C185        C588   1.489       .  S
Zn186       O190   1.957       .  S
Zn186       O191   2.013       .  S
Zn186       O195   2.011       .  S
Zn186       O202   2.008       .  S
Zn187       O190   1.958       .  S
Zn187       O192   2.024       .  S
Zn187       O194   2.015       .  S
Zn187       O198   2.014       .  S
Zn188       O190   1.965       .  S
Zn188       O193   2.036       .  S
Zn188       O196   2.021       .  S
Zn188       O199   2.018       .  S
Zn189       O190   1.972       .  S
Zn189       O197   2.022       .  S
Zn189       O200   2.035       .  S
Zn189       O201   2.036       .  S
O191        C203   1.273       .  A
O192        C204   1.274       .  A
O193        C205   1.275       .  A
O194        C203   1.274       .  A
O195        C205   1.272       .  A
O196        C204   1.273       .  A
O197        C206   1.275       .  A
O198        C207   1.273       .  A
O199        C206   1.275       .  A
O200        C207   1.275       .  A
O201        C208   1.275       .  A
O202        C208   1.272       .  A
C203        C568   1.483       .  S
C204        C501   1.481       .  S
C205       C1280   1.473       .  S
C206        C641   1.473       .  S
C208        C481   1.483       .  S
N209        C213   1.358       .  A
N209        C210   1.359       .  A
N209        C461   1.442       .  S
C210        C211   1.383       .  A
C210        C488   1.483       .  S
C211        C212   1.376       .  A
C211        H214   1.082       .  S
C212        C213   1.383       .  A
C212        H215   1.082       .  S
C213        C441   1.482       .  S
N216        C220   1.357       .  A
N216        C217   1.357       .  A
N216        C468   1.440       .  S
C217        C218   1.382       .  A
C217        C421   1.482       .  S
C218        C219   1.375       .  A
C218        H221   1.081       .  S
C219        C220   1.383       .  A
C219        H222   1.082       .  S
C220        C521   1.482       .  S
N223        C227   1.356       .  A
N223        C224   1.359   1_545  A
N223        C401   1.442   1_545  S
C224        C225   1.385       .  A
C224        C888   1.484       .  S
C225        C226   1.375   1_565  A
C225        H228   1.082       .  S
C226        C227   1.381       .  A
C226        H229   1.082       .  S
C227        C388   1.476       .  S
N230        C234   1.356       .  A
N230        C231   1.357   1_545  A
N230        C408   1.443   1_545  S
C231        C232   1.382       .  A
C231        C848   1.477       .  S
C232        C233   1.375   1_565  A
C232        H235   1.082       .  S
C233        C234   1.383       .  A
C233        H236   1.082       .  S
C234        C361   1.477       .  S
N237        C241   1.356       .  A
N237        C238   1.359   1_455  A
N237        C348   1.442       .  S
C238        C239   1.382       .  A
C238        C548   1.481       .  S
C239        C240   1.373   1_655  A
C239        H242   1.087       .  S
C240        C241   1.381       .  A
C240        H243   1.083       .  S
C241        C328   1.477       .  S
N244        C248   1.353   1_455  A
N244        C245   1.354       .  A
N244        C341   1.438       .  S
C245        C246   1.383       .  A
C245        C308   1.475       .  S
C246        C247   1.377   1_455  A
C246        H249   1.084       .  S
C247        C248   1.380       .  A
C247        H250   1.087       .  S
C248        C508   1.473       .  S
Zn251       O255   1.969       .  S
Zn251       O256   2.022       .  S
Zn251       O260   2.027       .  S
Zn251       O267   2.018       .  S
Zn252       O255   1.964       .  S
Zn252       O257   2.034       .  S
Zn252       O259   2.012       .  S
Zn252       O263   2.019       .  S
Zn253       O255   1.949       .  S
Zn253       O258   2.011       .  S
Zn253       O261   2.009       .  S
Zn253       O264   2.011       .  S
Zn254       O255   1.965       .  S
Zn254       O262   2.028       .  S
Zn254       O265   2.021       .  S
Zn254       O266   2.017       .  S
O256        C268   1.274       .  A
O257        C269   1.275       .  A
O258        C270   1.274       .  A
O259        C268   1.273       .  A
O260        C270   1.273       .  A
O261        C269   1.272       .  A
O262        C271   1.274       .  A
O263        C272   1.273       .  A
O264        C271   1.273       .  A
O265        C272   1.274       .  A
O266        C273   1.274       .  A
O267        C273   1.274       .  A
C268        C428   1.475       .  S
C269        C295   1.471       .  S
C270        C381   1.483       .  S
C271        C321   1.482       .  S
C272       C1008   1.478       .  S
C273       C1389   1.468       .  S
Zn274       O278   1.956       .  S
Zn274       O279   2.009       .  S
Zn274       O283   2.031       .  S
Zn274       O290   2.013       .  S
Zn275       O278   1.975       .  S
Zn275       O280   2.026       .  S
Zn275       O282   2.036       .  S
Zn275       O286   2.025       .  S
Zn276       O278   1.957       .  S
Zn276       O281   2.020       .  S
Zn276       O284   2.011       .  S
Zn276       O287   2.014       .  S
Zn277       O278   1.963       .  S
Zn277       O285   2.020       .  S
Zn277       O288   2.022       .  S
Zn277       O289   2.022       .  S
O279        C291   1.274       .  A
O280        C292   1.275       .  A
O281        C293   1.273       .  A
O282        C291   1.276       .  A
O283        C293   1.274       .  A
O284        C292   1.274       .  A
O285        C294   1.274       .  A
O286        C295   1.274       .  A
O287        C294   1.273       .  A
O288        C295   1.275       .  A
O289        C296   1.274       .  A
O290        C296   1.273       .  A
C291        C448   1.486       .  S
C292       C1061   1.481       .  S
C293       C1369   1.474   1_554  S
C294        C301   1.490       .  S
C296        C368   1.490       .  S
C297        C298   1.405       .  A
C297        C302   1.398       .  A
C297        F315   1.358       .  S
C298        C299   1.404       .  A
C298        C303   1.482       .  S
C299        C300   1.399       .  A
C299        F304   1.358       .  S
C300        C301   1.413       .  A
C300        F316   1.358       .  S
C301        C302   1.412       .  A
C302        F305   1.358       .  S
C303        C306   1.407       .  A
C303        C310   1.407       .  A
C306        C307   1.398       .  A
C306        F311   1.358       .  S
C307        C308   1.404       .  A
C307        F313   1.358       .  S
C308        C309   1.404       .  A
C309        C310   1.399       .  A
C309        F312   1.357       .  S
C310        F314   1.358       .  S
C317        C318   1.406       .  A
C317        C322   1.402       .  A
C317        F335   1.358       .  S
C318        C319   1.406       .  A
C318        C323   1.485       .  S
C319        C320   1.397       .  A
C319        F324   1.358       .  S
C320        C321   1.408       .  A
C320        F336   1.358       .  S
C321        C322   1.409       .  A
C322        F325   1.358       .  S
C323        C326   1.408       .  A
C323        C330   1.407       .  A
C326        C327   1.402       .  A
C326        F331   1.358       .  S
C327        C328   1.405       .  A
C327        F333   1.358       .  S
C328        C329   1.403       .  A
C329        C330   1.396       .  A
C329        F332   1.358       .  S
C330        F334   1.358       .  S
C337        C338   1.408       .  A
C337        C342   1.397       .  A
C337        F355   1.358       .  S
C338        C339   1.409   1_455  A
C338       C1439   1.485   1_554  S
C339        C340   1.399       .  A
C339        F344   1.358       .  S
C340        C341   1.403   1_655  A
C340        F356   1.357       .  S
C341        C342   1.403       .  A
C342        F345   1.357       .  S
C343        C346   1.406       .  A
C343        C350   1.408   1_455  A
C343       C1434   1.485       .  S
C346        C347   1.399       .  A
C346        F351   1.358       .  S
C347        C348   1.406       .  A
C347        F353   1.357       .  S
C348        C349   1.404   1_455  A
C349        C350   1.400       .  A
C349        F352   1.357       .  S
C350        F354   1.358       .  S
C357        C358   1.407       .  A
C357        C362   1.401       .  A
C357        F375   1.358       .  S
C358        C359   1.406       .  A
C358        C363   1.482       .  S
C359        C360   1.396       .  A
C359        F364   1.358       .  S
C360        C361   1.404       .  A
C360        F376   1.358       .  S
C361        C362   1.405       .  A
C362        F365   1.357       .  S
C363        C366   1.404       .  A
C363        C370   1.403       .  A
C366        C367   1.400       .  A
C366        F371   1.358       .  S
C367        C368   1.412       .  A
C367        F373   1.358       .  S
C368        C369   1.413       .  A
C369        C370   1.398       .  A
C369        F372   1.358       .  S
C370        F374   1.358       .  S
C377        C378   1.405       .  A
C377        C382   1.403       .  A
C377        F395   1.358       .  S
C378        C379   1.403       .  A
C378        C383   1.479       .  S
C379        C380   1.395       .  A
C379        F384   1.358       .  S
C380        C381   1.408       .  A
C380        F396   1.358       .  S
C381        C382   1.411       .  A
C382        F385   1.358       .  S
C383        C386   1.406       .  A
C383        C390   1.405       .  A
C386        C387   1.397       .  A
C386        F391   1.358       .  S
C387        C388   1.403       .  A
C387        F393   1.358       .  S
C388        C389   1.405       .  A
C389        C390   1.401       .  A
C389        F392   1.358       .  S
C390        F394   1.358       .  S
C397        C398   1.409   1_545  A
C397        C402   1.399       .  A
C397        F415   1.358       .  S
C398        C399   1.411       .  A
C398       C1499   1.493       .  S
C399        C400   1.403       .  A
C399        F404   1.357       .  S
C400        C401   1.403       .  A
C400        F416   1.357       .  S
C401        C402   1.405   1_565  A
C402        F405   1.357       .  S
C403        C406   1.408       .  A
C403        C410   1.406   1_565  A
C403       C1494   1.486       .  S
C406        C407   1.401       .  A
C406        F411   1.358       .  S
C407        C408   1.405       .  A
C407        F413   1.357       .  S
C408        C409   1.405   1_565  A
C409        C410   1.400       .  A
C409        F412   1.357       .  S
C410        F414   1.358       .  S
C417        C418   1.406       .  A
C417        C422   1.397       .  A
C417        F435   1.358       .  S
C418        C419   1.408       .  A
C418        C423   1.485       .  S
C419        C420   1.400       .  A
C419        F424   1.358       .  S
C420        C421   1.406       .  A
C420        F436   1.357       .  S
C421        C422   1.406       .  A
C422        F425   1.358       .  S
C423        C426   1.407       .  A
C423        C430   1.408       .  A
C426        C427   1.397       .  A
C426        F431   1.358       .  S
C427        C428   1.405       .  A
C427        F433   1.358       .  S
C428        C429   1.405       .  A
C429        C430   1.400       .  A
C429        F432   1.358       .  S
C430        F434   1.358       .  S
C437        C438   1.405       .  A
C437        C442   1.398       .  A
C437        F455   1.358       .  S
C438        C439   1.407       .  A
C438        C443   1.483       .  S
C439        C440   1.401       .  A
C439        F444   1.358       .  S
C440        C441   1.406       .  A
C440        F456   1.357       .  S
C441        C442   1.406       .  A
C442        F445   1.358       .  S
C443        C446   1.404       .  A
C443        C450   1.406       .  A
C446        C447   1.396       .  A
C446        F451   1.358       .  S
C447        C448   1.410       .  A
C447        F453   1.358       .  S
C448        C449   1.410       .  A
C449        C450   1.404       .  A
C449        F452   1.358       .  S
C450        F454   1.358       .  S
C457        C458   1.405       .  A
C457        C462   1.400       .  A
C457        F475   1.358       .  S
C458        C459   1.405       .  A
C458        C463   1.480       .  S
C459        C460   1.397       .  A
C459        F464   1.358       .  S
C460        C461   1.406       .  A
C460        F476   1.357       .  S
C461        C462   1.406       .  A
C462        F465   1.357       .  S
C463        C466   1.405       .  A
C463        C470   1.406       .  A
C466        C467   1.397       .  A
C466        F471   1.358       .  S
C467        C468   1.405       .  A
C467        F473   1.357       .  S
C468        C469   1.406       .  A
C469        C470   1.400       .  A
C469        F472   1.357       .  S
C470        F474   1.358       .  S
C477        C478   1.407       .  A
C477        C482   1.402       .  A
C477        F495   1.358       .  S
C478        C479   1.406       .  A
C478        C483   1.486       .  S
C479        C480   1.398       .  A
C479        F484   1.358       .  S
C480        C481   1.409       .  A
C480        F496   1.358       .  S
C481        C482   1.408       .  A
C482        F485   1.358       .  S
C483        C486   1.407       .  A
C483        C490   1.407       .  A
C486        C487   1.401       .  A
C486        F491   1.358       .  S
C487        C488   1.406       .  A
C487        F493   1.357       .  S
C488        C489   1.406       .  A
C489        C490   1.399       .  A
C489        F492   1.358       .  S
C490        F494   1.358       .  S
C497        C498   1.405       .  A
C497        C502   1.402       .  A
C497        F515   1.358       .  S
C498        C499   1.406       .  A
C498        C503   1.482       .  S
C499        C500   1.398       .  A
C499        F504   1.358       .  S
C500        C501   1.407       .  A
C500        F516   1.358       .  S
C501        C502   1.409       .  A
C502        F505   1.358       .  S
C503        C506   1.407       .  A
C503        C510   1.406       .  A
C506        C507   1.401       .  A
C506        F511   1.358       .  S
C507        C508   1.403       .  A
C507        F513   1.358       .  S
C508        C509   1.402       .  A
C509        C510   1.397       .  A
C509        F512   1.358       .  S
C510        F514   1.358       .  S
C517        C518   1.402       .  A
C517        C522   1.395       .  A
C517        F535   1.358       .  S
C518        C519   1.404       .  A
C518        C523   1.475       .  S
C519        C520   1.401       .  A
C519        F524   1.358       .  S
C520        C521   1.408       .  A
C520        F536   1.357       .  S
C521        C522   1.406       .  A
C522        F525   1.358       .  S
C523        C526   1.401       .  A
C523        C530   1.401       .  A
C526        C527   1.397       .  A
C526        F531   1.358       .  S
C527        C528   1.413       .  A
C527        F533   1.358       .  S
C528        C529   1.413       .  A
C529        C530   1.399       .  A
C529        F532   1.358       .  S
C530        F534   1.358       .  S
C537        C538   1.405       .  A
C537        C542   1.396       .  A
C537        F555   1.358       .  S
C538        C539   1.407       .  A
C538        C543   1.483       .  S
C539        C540   1.401       .  A
C539        F544   1.358       .  S
C540        C541   1.408       .  A
C540        F556   1.358       .  S
C541        C542   1.406       .  A
C542        F545   1.358       .  S
C543        C546   1.405       .  A
C543        C550   1.408       .  A
C546        C547   1.396       .  A
C546        F551   1.358       .  S
C547        C548   1.407       .  A
C547        F553   1.358       .  S
C548        C549   1.406       .  A
C549        C550   1.400       .  A
C549        F552   1.357       .  S
C550        F554   1.358       .  S
C557        C558   1.405       .  A
C557        C562   1.397       .  A
C557        F575   1.358       .  S
C558        C559   1.406       .  A
C558        C563   1.479       .  S
C559        C560   1.400       .  A
C559        F564   1.358       .  S
C560        C561   1.403       .  A
C560        F576   1.358       .  S
C561        C562   1.404       .  A
C562        F565   1.358       .  S
C563        C566   1.404       .  A
C563        C570   1.404       .  A
C566        C567   1.400       .  A
C566        F571   1.358       .  S
C567        C568   1.411       .  A
C567        F573   1.358       .  S
C568        C569   1.409       .  A
C569        C570   1.397       .  A
C569        F572   1.358       .  S
C570        F574   1.358       .  S
C577        C578   1.406       .  A
C577        C582   1.398       .  A
C577        F595   1.358       .  S
C578        C579   1.406       .  A
C578        C583   1.481       .  S
C579        C580   1.399       .  A
C579        F584   1.358       .  S
C580        C581   1.405       .  A
C580        F596   1.357       .  S
C581        C582   1.405       .  A
C582        F585   1.358       .  S
C583        C586   1.404       .  A
C583        C590   1.404       .  A
C586        C587   1.400       .  A
C586        F591   1.358       .  S
C587        C588   1.413       .  A
C587        F593   1.358       .  S
C588        C589   1.411       .  A
C589        C590   1.397       .  A
C589        F592   1.358       .  S
C590        F594   1.358       .  S
C597        C598   1.406       .  A
C597        C602   1.398       .  A
C597        F615   1.358       .  S
C598        C599   1.409   1_545  A
C598       C1699   1.484       .  S
C599        C600   1.400       .  A
C599        F604   1.358       .  S
C600        C601   1.403   1_565  A
C600        F616   1.357       .  S
C601        C602   1.406       .  A
C602        F605   1.357       .  S
C603        C606   1.408   1_545  A
C603        C610   1.407       .  A
C603       C1694   1.490   1_544  S
C606        C607   1.404       .  A
C606        F611   1.358       .  S
C607        C608   1.407   1_565  A
C607        F613   1.357       .  S
C608        C609   1.406       .  A
C609        C610   1.399       .  A
C609        F612   1.356       .  S
C610        F614   1.358       .  S
C617        C618   1.402       .  A
C617        C622   1.400       .  A
C617        F635   1.358       .  S
C618        C619   1.403       .  A
C618        C623   1.476       .  S
C619        C620   1.395       .  A
C619        F624   1.359       .  S
C620        C621   1.411       .  A
C620        F636   1.358       .  S
C621        C622   1.411       .  A
C622        F625   1.357       .  S
C623        C626   1.403       .  A
C623        C630   1.406       .  A
C626        C627   1.393       .  A
C626        F631   1.358       .  S
C627        C628   1.404       .  A
C627        F633   1.358       .  S
C628        C629   1.406       .  A
C629        C630   1.401       .  A
C629        F632   1.357       .  S
C630        F634   1.358       .  S
C637        C638   1.408       .  A
C637        C642   1.400       .  A
C637        F655   1.358       .  S
C638        C639   1.407       .  A
C638        C643   1.483       .  S
C639        C640   1.398       .  A
C639        F644   1.358       .  S
C640        C641   1.404       .  A
C640        F656   1.358       .  S
C641        C642   1.405       .  A
C642        F645   1.358       .  S
C643        C646   1.407       .  A
C643        C650   1.406       .  A
C646        C647   1.400       .  A
C646        F651   1.358       .  S
C647        C648   1.406       .  A
C647        F653   1.357       .  S
C648        C649   1.405       .  A
C649        C650   1.396       .  A
C649        F652   1.358       .  S
C650        F654   1.358       .  S
C657        C658   1.408       .  A
C657        C662   1.401       .  A
C657        F675   1.357       .  S
C658        C659   1.410       .  A
C658        C663   1.490       .  S
C659        C660   1.401       .  A
C659        F664   1.358       .  S
C660        C661   1.403       .  A
C660        F676   1.357       .  S
C661        C662   1.403       .  A
C662        F665   1.357       .  S
C663        C666   1.409       .  A
C663        C670   1.407       .  A
C666        C667   1.404       .  A
C666        F671   1.358       .  S
C667        C668   1.407       .  A
C667        F673   1.357       .  S
C668        C669   1.405       .  A
C669        C670   1.398       .  A
C669        F672   1.357       .  S
C670        F674   1.358       .  S
C677        C678   1.403       .  A
C677        C682   1.399       .  A
C677        F695   1.358       .  S
C678        C679   1.404       .  A
C678        C683   1.483       .  S
C679        C680   1.402       .  A
C679        F684   1.358       .  S
C680        C681   1.414       .  A
C680        F696   1.358       .  S
C681        C682   1.413       .  A
C682        F685   1.358       .  S
C683        C686   1.407       .  A
C683        C690   1.405       .  A
C686        C687   1.402       .  A
C686        F691   1.358       .  S
C687        C688   1.406       .  A
C687        F693   1.357       .  S
C688        C689   1.405       .  A
C689        C690   1.398       .  A
C689        F692   1.358       .  S
C690        F694   1.358       .  S
C697        C698   1.404       .  A
C697        C702   1.400       .  A
C697        F715   1.358       .  S
C698        C699   1.404       .  A
C698        C703   1.482       .  S
C699        C700   1.401       .  A
C699        F704   1.358       .  S
C700        C701   1.411       .  A
C700        F716   1.358       .  S
C701        C702   1.411       .  A
C702        F705   1.358       .  S
C703        C706   1.406       .  A
C703        C710   1.404       .  A
C706        C707   1.402       .  A
C706        F711   1.357       .  S
C707        C708   1.406       .  A
C707        F713   1.357       .  S
C708        C709   1.406       .  A
C709        C710   1.397       .  A
C709        F712   1.358       .  S
C710        F714   1.358       .  S
C717        C718   1.408       .  A
C717        C722   1.400       .  A
C717        F735   1.358       .  S
C718        C719   1.406       .  A
C718        C723   1.482       .  S
C719        C720   1.395       .  A
C719        F724   1.358       .  S
C720        C721   1.404       .  A
C720        F736   1.358       .  S
C721        C722   1.404       .  A
C722        F725   1.358       .  S
C723        C726   1.405       .  A
C723        C730   1.405       .  A
C726        C727   1.397       .  A
C726        F731   1.358       .  S
C727        C728   1.412       .  A
C727        F733   1.358       .  S
C728        C729   1.410       .  A
C729        C730   1.398       .  A
C729        F732   1.358       .  S
C730        F734   1.358       .  S
C737        C738   1.403       .  A
C737        C742   1.401       .  A
C737        F755   1.358       .  S
C738        C739   1.402       .  A
C738        C743   1.478       .  S
C739        C740   1.399       .  A
C739        F744   1.358       .  S
C740        C741   1.411       .  A
C740        F756   1.358       .  S
C741        C742   1.411       .  A
C742        F745   1.358       .  S
C743        C746   1.403       .  A
C743        C750   1.402       .  A
C746        C747   1.401       .  A
C746        F751   1.358       .  S
C747        C748   1.409       .  A
C747        F753   1.355       .  S
C748        C749   1.411       .  A
C749        C750   1.398       .  A
C749        F752   1.358       .  S
C750        F754   1.358       .  S
C757        C758   1.408       .  A
C757        C762   1.401       .  A
C757        F775   1.358       .  S
C758        C759   1.408       .  A
C758        C763   1.491       .  S
C759        C760   1.400       .  A
C759        F764   1.358       .  S
C760        C761   1.407       .  A
C760        F776   1.356       .  S
C761        C762   1.408       .  A
C762        F765   1.358       .  S
C763        C766   1.410       .  A
C763        C770   1.408       .  A
C766        C767   1.404       .  A
C766        F771   1.358       .  S
C767        C768   1.407       .  A
C767        F773   1.358       .  S
C768        C769   1.403       .  A
C769        C770   1.397       .  A
C769        F772   1.358       .  S
C770        F774   1.358       .  S
C777        C778   1.403       .  A
C777        C782   1.399       .  A
C777        F795   1.358       .  S
C778        C779   1.406       .  A
C778        C783   1.479       .  S
C779        C780   1.398       .  A
C779        F784   1.358       .  S
C780        C781   1.407       .  A
C780        F796   1.358       .  S
C781        C782   1.411       .  A
C782        F785   1.358       .  S
C783        C786   1.405       .  A
C783        C790   1.407       .  A
C786        C787   1.396       .  A
C786        F791   1.358       .  S
C787        C788   1.402       .  A
C787        F793   1.358       .  S
C788        C789   1.403       .  A
C789        C790   1.400       .  A
C789        F792   1.358       .  S
C790        F794   1.358       .  S
C797        C798   1.408       .  A
C797        C802   1.398       .  A
C797        F815   1.358       .  S
C798        C799   1.407       .  A
C798        C803   1.485       .  S
C799        C800   1.399       .  A
C799        F804   1.358       .  S
C800        C801   1.404       .  A
C800        F816   1.357       .  S
C801        C802   1.404       .  A
C802        F805   1.356       .  S
C803        C806   1.408       .  A
C803        C810   1.409       .  A
C806        C807   1.396       .  A
C806        F811   1.358       .  S
C807        C808   1.403       .  A
C807        F813   1.357       .  S
C808        C809   1.404       .  A
C809        C810   1.399       .  A
C809        F812   1.357       .  S
C810        F814   1.358       .  S
C817        C818   1.406       .  A
C817        C822   1.396       .  A
C817        F835   1.358       .  S
C818        C819   1.408       .  A
C818        C823   1.484       .  S
C819        C820   1.402       .  A
C819        F824   1.358       .  S
C820        C821   1.405       .  A
C820        F836   1.358       .  S
C821        C822   1.403       .  A
C822        F825   1.358       .  S
C823        C826   1.405       .  A
C823        C830   1.407       .  A
C826        C827   1.400       .  A
C826        F831   1.357       .  S
C827        C828   1.408       .  A
C827        F833   1.358       .  S
C828        C829   1.408       .  A
C829        C830   1.397       .  A
C829        F832   1.358       .  S
C830        F834   1.358       .  S
C837        C838   1.403       .  A
C837        C842   1.401       .  A
C837        F855   1.358       .  S
C838        C839   1.401       .  A
C838        C843   1.478       .  S
C839        C840   1.398       .  A
C839        F844   1.358       .  S
C840        C841   1.413       .  A
C840        F856   1.358       .  S
C841        C842   1.412       .  A
C842        F845   1.358       .  S
C843        C846   1.404       .  A
C843        C850   1.406       .  A
C846        C847   1.397       .  A
C846        F851   1.358       .  S
C847        C848   1.405       .  A
C847        F853   1.358       .  S
C848        C849   1.405       .  A
C849        C850   1.401       .  A
C849        F852   1.358       .  S
C850        F854   1.358       .  S
C857        C858   1.404       .  A
C857        C862   1.402       .  A
C857        F875   1.358       .  S
C858        C859   1.405       .  A
C858        C863   1.487       .  S
C859        C860   1.400       .  A
C859        F864   1.358       .  S
C860        C861   1.411       .  A
C860        F876   1.358       .  S
C861        C862   1.413       .  A
C862        F865   1.358       .  S
C863        C866   1.406       .  A
C863        C870   1.406       .  A
C866        C867   1.402       .  A
C866        F871   1.358       .  S
C867        C868   1.408       .  A
C867        F873   1.358       .  S
C868        C869   1.407       .  A
C869        C870   1.401       .  A
C869        F872   1.357       .  S
C870        F874   1.358       .  S
C877        C878   1.407       .  A
C877        C882   1.400       .  A
C877        F895   1.358       .  S
C878        C879   1.407       .  A
C878        C883   1.485       .  S
C879        C880   1.400       .  A
C879        F884   1.358       .  S
C880        C881   1.406       .  A
C880        F896   1.358       .  S
C881        C882   1.405       .  A
C882        F885   1.358       .  S
C883        C886   1.405       .  A
C883        C890   1.408       .  A
C886        C887   1.397       .  A
C886        F891   1.358       .  S
C887        C888   1.408       .  A
C887        F893   1.358       .  S
C888        C889   1.406       .  A
C889        C890   1.402       .  A
C889        F892   1.357       .  S
C890        F894   1.358       .  S
C897        C898   1.404       .  A
C897        C902   1.395       .  A
C897        F915   1.358       .  S
C898        C899   1.405       .  A
C898        C903   1.481       .  S
C899        C900   1.402       .  A
C899        F904   1.358       .  S
C900        C901   1.411       .  A
C900        F916   1.358       .  S
C901        C902   1.411       .  A
C902        F905   1.358       .  S
C903        C906   1.403       .  A
C903        C910   1.407       .  A
C906        C907   1.395       .  A
C906        F911   1.358       .  S
C907        C908   1.408       .  A
C907        F913   1.358       .  S
C908        C909   1.407       .  A
C909        C910   1.402       .  A
C909        F912   1.357       .  S
C910        F914   1.358       .  S
C917        C918   1.402       .  A
C917        C922   1.399       .  A
C917        F935   1.358       .  S
C918        C919   1.401       .  A
C918        C923   1.476       .  S
C919        C920   1.399       .  A
C919        F924   1.358       .  S
C920        C921   1.413       .  A
C920        F936   1.358       .  S
C921        C922   1.412       .  A
C922        F925   1.358       .  S
C923        C926   1.403       .  A
C923        C930   1.404       .  A
C926        C927   1.397       .  A
C926        F931   1.358       .  S
C927        C928   1.405       .  A
C927        F933   1.358       .  S
C928        C929   1.407       .  A
C929        C930   1.401       .  A
C929        F932   1.358       .  S
C930        F934   1.358       .  S
C937        C938   1.406       .  A
C937        C942   1.398       .  A
C937        F955   1.358       .  S
C938        C939   1.408       .  A
C938        C943   1.485       .  S
C939        C940   1.401       .  A
C939        F944   1.358       .  S
C940        C941   1.406       .  A
C940        F956   1.357       .  S
C941        C942   1.407       .  A
C942        F945   1.358       .  S
C943        C946   1.406       .  A
C943        C950   1.408       .  A
C946        C947   1.397       .  A
C946        F951   1.358       .  S
C947        C948   1.406       .  A
C947        F953   1.358       .  S
C948        C949   1.405       .  A
C949        C950   1.402       .  A
C949        F952   1.358       .  S
C950        F954   1.358       .  S
C957        C958   1.406       .  A
C957        C962   1.401       .  A
C957        F975   1.358       .  S
C958        C959   1.405       .  A
C958        C963   1.482       .  S
C959        C960   1.399       .  A
C959        F964   1.358       .  S
C960        C961   1.406       .  A
C960        F976   1.358       .  S
C961        C962   1.405       .  A
C962        F965   1.357       .  S
C963        C966   1.404       .  A
C963        C970   1.402       .  A
C966        C967   1.403       .  A
C966        F971   1.358       .  S
C967        C968   1.413       .  A
C967        F973   1.358       .  S
C968        C969   1.414       .  A
C969        C970   1.398       .  A
C969        F972   1.358       .  S
C970        F974   1.358       .  S
C977        C978   1.407   1_455  A
C977        C982   1.401       .  A
C977        F995   1.358       .  S
C978        C979   1.406       .  A
C978       C2079   1.485   1_655  S
C979        C980   1.398       .  A
C979        F984   1.358       .  S
C980        C981   1.406       .  A
C980        F996   1.357       .  S
C981        C982   1.406   1_655  A
C982        F985   1.357       .  S
C983        C986   1.409       .  A
C983        C990   1.406   1_455  A
C983       C2074   1.486   1_554  S
C986        C987   1.402       .  A
C986        F991   1.358       .  S
C987        C988   1.405   1_455  A
C987        F993   1.357       .  S
C988        C989   1.406       .  A
C989        C990   1.398       .  A
C989        F992   1.357       .  S
C990        F994   1.358       .  S
C997        C998   1.406       .  A
C997       C1002   1.396       .  A
C997       F1015   1.358       .  S
C998        C999   1.409       .  A
C998       C1003   1.486       .  S
C999       C1000   1.402       .  A
C999       F1004   1.358       .  S
C1000      C1001   1.406       .  A
C1000      F1016   1.357       .  S
C1001      C1002   1.406       .  A
C1002      F1005   1.358       .  S
C1003      C1006   1.407       .  A
C1003      C1010   1.407       .  A
C1006      C1007   1.399       .  A
C1006      F1011   1.358       .  S
C1007      C1008   1.405       .  A
C1007      F1013   1.358       .  S
C1008      C1009   1.407       .  A
C1009      C1010   1.400       .  A
C1009      F1012   1.358       .  S
C1010      F1014   1.358       .  S
C1017      C1018   1.405       .  A
C1017      C1022   1.396       .  A
C1017      F1035   1.358       .  S
C1018      C1019   1.407       .  A
C1018      C1023   1.483       .  S
C1019      C1020   1.403       .  A
C1019      F1024   1.358       .  S
C1020      C1021   1.407       .  A
C1020      F1036   1.357       .  S
C1021      C1022   1.405       .  A
C1022      F1025   1.358       .  S
C1023      C1026   1.405       .  A
C1023      C1030   1.405       .  A
C1026      C1027   1.404       .  A
C1026      F1031   1.358       .  S
C1027      C1028   1.410       .  A
C1027      F1033   1.358       .  S
C1028      C1029   1.407       .  A
C1029      C1030   1.397       .  A
C1029      F1032   1.358       .  S
C1030      F1034   1.358       .  S
C1037      C1038   1.402       .  A
C1037      C1042   1.397       .  A
C1037      F1055   1.358       .  S
C1038      C1039   1.403       .  A
C1038      C1043   1.474       .  S
C1039      C1040   1.401       .  A
C1039      F1044   1.358       .  S
C1040      C1041   1.407       .  A
C1040      F1056   1.357       .  S
C1041      C1042   1.407       .  A
C1042      F1045   1.358       .  S
C1043      C1046   1.402       .  A
C1043      C1050   1.401       .  A
C1046      C1047   1.402       .  A
C1046      F1051   1.358       .  S
C1047      C1048   1.413       .  A
C1047      F1053   1.358       .  S
C1048      C1049   1.411       .  A
C1049      C1050   1.396       .  A
C1049      F1052   1.358       .  S
C1050      F1054   1.358       .  S
C1057      C1058   1.404       .  A
C1057      C1062   1.402       .  A
C1057      F1075   1.358       .  S
C1058      C1059   1.403       .  A
C1058      C1063   1.477       .  S
C1059      C1060   1.396       .  A
C1059      F1064   1.358       .  S
C1060      C1061   1.408       .  A
C1060      F1076   1.358       .  S
C1061      C1062   1.410       .  A
C1062      F1065   1.358       .  S
C1063      C1066   1.404       .  A
C1063      C1070   1.406       .  A
C1066      C1067   1.396       .  A
C1066      F1071   1.358       .  S
C1067      C1068   1.404       .  A
C1067      F1073   1.358       .  S
C1068      C1069   1.405       .  A
C1069      C1070   1.401       .  A
C1069      F1072   1.357       .  S
C1070      F1074   1.358       .  S
C1077      C1078   1.404       .  A
C1077      C1082   1.396       .  A
C1077      F1095   1.358       .  S
C1078      C1079   1.407       .  A
C1078      C1083   1.482       .  S
C1079      C1080   1.403       .  A
C1079      F1084   1.358       .  S
C1080      C1081   1.407       .  A
C1080      F1096   1.357       .  S
C1081      C1082   1.405       .  A
C1082      F1085   1.357       .  S
C1083      C1086   1.406       .  A
C1083      C1090   1.406       .  A
C1086      C1087   1.398       .  A
C1086      F1091   1.358       .  S
C1087      C1088   1.406       .  A
C1087      F1093   1.357       .  S
C1088      C1089   1.406       .  A
C1089      C1090   1.401       .  A
C1089      F1092   1.357       .  S
C1090      F1094   1.358       .  S
N1097      C1101   1.357       .  A
N1097      C1098   1.357       .  A
N1097      C2184   1.446       .  S
C1098      C1099   1.381       .  A
C1098      C2164   1.473       .  S
C1099      C1100   1.372       .  A
C1099      H1102   1.080       .  S
C1100      C1101   1.382       .  A
C1100      H1103   1.082       .  S
C1101      C2137   1.473       .  S
N1104      C1108   1.359       .  A
N1104      C1105   1.361       .  A
N1104      C2177   1.443       .  S
C1105      C1106   1.385       .  A
C1105      C2097   1.487       .  S
C1106      C1107   1.371       .  A
C1106      H1109   1.082       .  S
C1107      C1108   1.381       .  A
C1107      H1110   1.082       .  S
C1108      C2117   1.480       .  S
N1111      C1115   1.357   1_455  A
N1111      C1112   1.358       .  A
N1111      C2077   1.441       .  S
C1112      C1113   1.384       .  A
C1112      C2037   1.483       .  S
C1113      C1114   1.377   1_455  A
C1113      H1116   1.082       .  S
C1114      C1115   1.383       .  A
C1114      H1117   1.082       .  S
C1115      C2057   1.481       .  S
N1118      C1122   1.355   1_655  A
N1118      C1119   1.356       .  A
N1118      C2084   1.442       .  S
C1119      C1120   1.383       .  A
C1119      C2024   1.477       .  S
C1120      C1121   1.376   1_655  A
C1120      H1123   1.082       .  S
C1121      C1122   1.383       .  A
C1121      H1124   1.082       .  S
C1122      C2004   1.475       .  S
Zn1125     O1129   1.955       .  S
Zn1125     O1130   2.013       .  S
Zn1125     O1134   2.019       .  S
Zn1125     O1141   2.032       .  S
Zn1126     O1129   1.968       .  S
Zn1126     O1131   2.029       .  S
Zn1126     O1133   2.013       .  S
Zn1126     O1137   2.019       .  S
Zn1127     O1129   1.962       .  S
Zn1127     O1132   2.025       .  S
Zn1127     O1135   2.009       .  S
Zn1127     O1138   2.009       .  S
Zn1128     O1129   1.965       .  S
Zn1128     O1136   2.018       .  S
Zn1128     O1139   2.025       .  S
Zn1128     O1140   2.022       .  S
O1130      C1142   1.274       .  A
O1131      C1143   1.274       .  A
O1132      C1144   1.273   1_556  A
O1133      C1142   1.273       .  A
O1134      C1144   1.274   1_556  A
O1135      C1143   1.273       .  A
O1136      C1145   1.273       .  A
O1137      C1146   1.274       .  A
O1138      C1145   1.272       .  A
O1139      C1146   1.275       .  A
O1140      C1147   1.273       .  A
O1141      C1147   1.275       .  A
C1142      C2124   1.476       .  S
C1143      C2044   1.478       .  S
C1145      C1977   1.470       .  S
C1146      C1166   1.470       .  S
C1147      C1957   1.496       .  S
Zn1148     O1152   1.947       .  S
Zn1148     O1153   1.995       .  S
Zn1148     O1157   2.001       .  S
Zn1148     O1164   2.002       .  S
Zn1149     O1152   1.960       .  S
Zn1149     O1154   2.016       .  S
Zn1149     O1156   2.015       .  S
Zn1149     O1160   2.001       .  S
Zn1150     O1152   1.960       .  S
Zn1150     O1155   2.028       .  S
Zn1150     O1158   2.023       .  S
Zn1150     O1161   2.020       .  S
Zn1151     O1152   1.969       .  S
Zn1151     O1159   2.031       .  S
Zn1151     O1162   2.030       .  S
Zn1151     O1163   2.044       .  S
O1153      C1165   1.271       .  A
O1154      C1166   1.273       .  A
O1155      C1167   1.275       .  A
O1156      C1165   1.272       .  A
O1157      C1167   1.272       .  A
O1158      C1166   1.274       .  A
O1159      C1168   1.276       .  A
O1160      C1169   1.272       .  A
O1161      C1168   1.275       .  A
O1162      C1169   1.276       .  A
O1163      C1170   1.276       .  A
O1164      C1170   1.272       .  A
C1165      C2144   1.480       .  S
C1167      C1924   1.484       .  S
C1168      C1937   1.489       .  S
C1169      C1997   1.489       .  S
N1171      C1175   1.355       .  A
N1171      C1172   1.357       .  A
N1171      C1897   1.442       .  S
C1172      C1173   1.383       .  A
C1172      C1917   1.477       .  S
C1173      C1174   1.376       .  A
C1173      H1176   1.082       .  S
C1174      C1175   1.381       .  A
C1174      H1177   1.081       .  S
C1175      C1884   1.473       .  S
N1178      C1182   1.358       .  A
N1178      C1179   1.361       .  A
N1178      C1904   1.441       .  S
C1179      C1180   1.384       .  A
C1179      C1857   1.489       .  S
C1180      C1181   1.376       .  A
C1180      H1183   1.081   1_556  S
C1181      C1182   1.381       .  A
C1181      H1184   1.082   1_556  S
C1182      C1964   1.483       .  S
Zn1185     O1189   1.970       .  S
Zn1185     O1190   2.044       .  S
Zn1185     O1194   2.033       .  S
Zn1185     O1201   2.043       .  S
Zn1186     O1189   1.962       .  S
Zn1186     O1191   2.032       .  S
Zn1186     O1193   2.018       .  S
Zn1186     O1197   2.008       .  S
Zn1187     O1189   1.955       .  S
Zn1187     O1192   2.008       .  S
Zn1187     O1195   2.012       .  S
Zn1187     O1198   2.024       .  S
Zn1188     O1189   1.955       .  S
Zn1188     O1196   2.013       .  S
Zn1188     O1199   2.006       .  S
Zn1188     O1200   2.002       .  S
O1190      C1202   1.276       .  A
O1191      C1203   1.274       .  A
O1192      C1204   1.273       .  A
O1193      C1202   1.273       .  A
O1194      C1204   1.276       .  A
O1195      C1203   1.273       .  A
O1196      C1205   1.271       .  A
O1197      C1206   1.273       .  A
O1198      C1205   1.273       .  A
O1199      C1206   1.272       .  A
O1200      C1207   1.272       .  A
O1201      C1207   1.276       .  A
C1203      C1864   1.479       .  S
C1204      C1837   1.489       .  S
C1205      C1229   1.461       .  S
C1206      C1824   1.484       .  S
C1207      C2064   1.494       .  S
Zn1208     O1212   1.955       .  S
Zn1208     O1213   2.020       .  S
Zn1208     O1217   2.027       .  S
Zn1208     O1224   2.015       .  S
Zn1209     O1212   1.959       .  S
Zn1209     O1214   2.007       .  S
Zn1209     O1216   2.014       .  S
Zn1209     O1220   2.015       .  S
Zn1210     O1212   1.962       .  S
Zn1210     O1215   2.022       .  S
Zn1210     O1218   2.013       .  S
Zn1210     O1221   2.026       .  S
Zn1211     O1212   1.968       .  S
Zn1211     O1219   2.026       .  S
Zn1211     O1222   2.025       .  S
Zn1211     O1223   2.040       .  S
O1213      C1225   1.273       .  A
O1214      C1226   1.272       .  A
O1215      C1227   1.272       .  A
O1216      C1225   1.273       .  A
O1217      C1227   1.274       .  A
O1218      C1226   1.273       .  A
O1219      C1228   1.275       .  A
O1220      C1229   1.272       .  A
O1221      C1228   1.275       .  A
O1222      C1229   1.273       .  A
O1223      C1230   1.277       .  A
O1224      C1230   1.275       .  A
C1225      C2017   1.490       .  S
C1226      C1797   1.485       .  S
C1228      C1877   1.483       .  S
C1230      C1777   1.494       .  S
N1231      C1235   1.356       .  A
N1231      C1232   1.355       .  A
N1231      C1757   1.438       .  S
C1232      C1233   1.382       .  A
C1232      C1784   1.480       .  S
C1233      C1234   1.379       .  A
C1233      H1236   1.082       .  S
C1234      C1235   1.385       .  A
C1234      H1237   1.082       .  S
C1235      C1744   1.486       .  S
N1238      C1242   1.358       .  A
N1238      C1239   1.358       .  A
N1238      C1764   1.444       .  S
C1239      C1240   1.383       .  A
C1239      C1817   1.478       .  S
C1240      C1241   1.372       .  A
C1240      H1243   1.082       .  S
C1241      C1242   1.382       .  A
C1241      H1244   1.082       .  S
C1242      C1724   1.477       .  S
N1245      C1249   1.357   1_545  A
N1245      C1246   1.358       .  A
N1245      C1697   1.443   1_545  S
C1246      C1247   1.383       .  A
C1246      C1677   1.478       .  S
C1247      C1248   1.374   1_545  A
C1247      H1250   1.082       .  S
C1248      C1249   1.381       .  A
C1248      H1251   1.081       .  S
C1249      C1844   1.476       .  S
N1252      C1256   1.357   1_565  A
N1252      C1253   1.357       .  A
N1252      C1704   1.442       .  S
C1253      C1254   1.382       .  A
C1253      C1804   1.477       .  S
C1254      C1255   1.374   1_565  A
C1254      H1257   1.082       .  S
C1255      C1256   1.382       .  A
C1255      H1258   1.082       .  S
C1256      C1657   1.478       .  S
Zn1259     O1263   1.955       .  S
Zn1259     O1264   2.018       .  S
Zn1259     O1268   2.014       .  S
Zn1259     O1275   2.017       .  S
Zn1260     O1263   1.968       .  S
Zn1260     O1265   2.017       .  S
Zn1260     O1267   2.034       .  S
Zn1260     O1271   2.032       .  S
Zn1261     O1263   1.970       .  S
Zn1261     O1266   2.029       .  S
Zn1261     O1269   2.026       .  S
Zn1261     O1272   2.023       .  S
Zn1262     O1263   1.963       .  S
Zn1262     O1270   2.020       .  S
Zn1262     O1273   2.021       .  S
Zn1262     O1274   2.028       .  S
O1264      C1276   1.274       .  A
O1265      C1277   1.274       .  A
O1266      C1278   1.274       .  A
O1267      C1276   1.275       .  A
O1268      C1278   1.273       .  A
O1269      C1277   1.275       .  A
O1270      C1279   1.274       .  A
O1271      C1280   1.275   1_556  A
O1272      C1279   1.274       .  A
O1273      C1280   1.275   1_556  A
O1274      C1281   1.274       .  A
O1275      C1281   1.274       .  A
C1276      C1637   1.491       .  S
C1277      C1717   1.490       .  S
C1278      C1303   1.471       .  S
C1279      C1624   1.493       .  S
C1281      C1684   1.491       .  S
Zn1282     O1286   1.963       .  S
Zn1282     O1287   2.027       .  S
Zn1282     O1291   2.015       .  S
Zn1282     O1298   2.016       .  S
Zn1283     O1286   1.956       .  S
Zn1283     O1288   2.020       .  S
Zn1283     O1290   2.019       .  S
Zn1283     O1294   2.009       .  S
Zn1284     O1286   1.966       .  S
Zn1284     O1289   2.020       .  S
Zn1284     O1292   2.018       .  S
Zn1284     O1295   2.025       .  S
Zn1285     O1286   1.971       .  S
Zn1285     O1293   2.029       .  S
Zn1285     O1296   2.034       .  S
Zn1285     O1297   2.034       .  S
O1287      C1299   1.274       .  A
O1288      C1300   1.274       .  A
O1289      C1301   1.274       .  A
O1290      C1299   1.274       .  A
O1291      C1301   1.273       .  A
O1292      C1300   1.273       .  A
O1293      C1302   1.275       .  A
O1294      C1303   1.273       .  A
O1295      C1302   1.275       .  A
O1296      C1303   1.275       .  A
O1297      C1304   1.276       .  A
O1298      C1304   1.274       .  A
C1299      C1664   1.484       .  S
C1300      C1597   1.476       .  S
C1302      C1737   1.478       .  S
C1304      C1577   1.487       .  S
N1305      C1309   1.355       .  A
N1305      C1306   1.355       .  A
N1305      C1557   1.440       .  S
C1306      C1307   1.383       .  A
C1306      C1584   1.478       .  S
C1307      C1308   1.377       .  A
C1307      H1310   1.082       .  S
C1308      C1309   1.382       .  A
C1308      H1311   1.081       .  S
C1309      C1537   1.478       .  S
N1312      C1316   1.363       .  A
N1312      C1313   1.363       .  A
N1312      C1564   1.449       .  S
C1313      C1314   1.382       .  A
C1313      C1517   1.482       .  S
C1314      C1315   1.369       .  A
C1314      H1317   1.082       .  S
C1315      C1316   1.384       .  A
C1315      H1318   1.082       .  S
C1316      C1617   1.485       .  S
N1319      C1323   1.355   1_565  A
N1319      C1320   1.358       .  A
N1319      C1497   1.441       .  S
C1320      C1321   1.384       .  A
C1320      C1984   1.480       .  S
C1321      C1322   1.374   1_565  A
C1321      H1324   1.082       .  S
C1322      C1323   1.381       .  A
C1322      H1325   1.082       .  S
C1323      C1484   1.475       .  S
N1326      C1330   1.359       .  A
N1326      C1327   1.359   1_545  A
N1326      C1504   1.442       .  S
C1327      C1328   1.383       .  A
C1327      C1944   1.484       .  S
C1328      C1329   1.375   1_565  A
C1328      H1331   1.082       .  S
C1329      C1330   1.383       .  A
C1329      H1332   1.082       .  S
C1330      C1457   1.482       .  S
N1333      C1337   1.357       .  A
N1333      C1334   1.358   1_455  A
N1333      C1444   1.439       .  S
C1334      C1335   1.383       .  A
C1334      C1644   1.485       .  S
C1335      C1336   1.377   1_655  A
C1335      H1338   1.076       .  S
C1336      C1337   1.383       .  A
C1336      H1339   1.079       .  S
C1337      C1424   1.484       .  S
N1340      C1344   1.354   1_455  A
N1340      C1341   1.354       .  A
N1340      C1437   1.439       .  S
C1341      C1342   1.382       .  A
C1341      C1404   1.476       .  S
C1342      C1343   1.378   1_455  A
C1342      H1345   1.079       .  S
C1343      C1344   1.383       .  A
C1343      H1346   1.074       .  S
C1344      C1604   1.475       .  S
Zn1347     O1351   1.967       .  S
Zn1347     O1352   2.016       .  S
Zn1347     O1356   2.018       .  S
Zn1347     O1363   2.029       .  S
Zn1348     O1351   1.964       .  S
Zn1348     O1353   2.041       .  S
Zn1348     O1355   2.010       .  S
Zn1348     O1359   2.022       .  S
Zn1349     O1351   1.949       .  S
Zn1349     O1354   2.012       .  S
Zn1349     O1357   1.999       .  S
Zn1349     O1360   1.994       .  S
Zn1350     O1351   1.966       .  S
Zn1350     O1358   2.031       .  S
Zn1350     O1361   2.032       .  S
Zn1350     O1362   2.028       .  S
O1352      C1364   1.273       .  A
O1353      C1365   1.275       .  A
O1354      C1366   1.273       .  A
O1355      C1364   1.274       .  A
O1356      C1366   1.273       .  A
O1357      C1365   1.271       .  A
O1358      C1367   1.275       .  A
O1359      C1368   1.274       .  A
O1360      C1367   1.271       .  A
O1361      C1368   1.276       .  A
O1362      C1369   1.275       .  A
O1363      C1369   1.274       .  A
C1364      C1524   1.470       .  S
C1365      C1391   1.471       .  S
C1366      C1477   1.482       .  S
C1367      C1417   1.475       .  S
C1368      C2104   1.483       .  S
Zn1370     O1374   1.954       .  S
Zn1370     O1375   2.007       .  S
Zn1370     O1379   2.018       .  S
Zn1370     O1386   2.020       .  S
Zn1371     O1374   1.971       .  S
Zn1371     O1376   2.017       .  S
Zn1371     O1378   2.019       .  S
Zn1371     O1382   2.025       .  S
Zn1372     O1374   1.958       .  S
Zn1372     O1377   2.015       .  S
Zn1372     O1380   2.011       .  S
Zn1372     O1383   2.008       .  S
Zn1373     O1374   1.956       .  S
Zn1373     O1381   2.026       .  S
Zn1373     O1384   2.018       .  S
Zn1373     O1385   2.029       .  S
O1375      C1387   1.273       .  A
O1376      C1388   1.273       .  A
O1377      C1389   1.273       .  A
O1378      C1387   1.273       .  A
O1379      C1389   1.273       .  A
O1380      C1388   1.273       .  A
O1381      C1390   1.275       .  A
O1382      C1391   1.273       .  A
O1383      C1390   1.272       .  A
O1384      C1391   1.275       .  A
O1385      C1392   1.275       .  A
O1386      C1392   1.274       .  A
C1387      C1544   1.482       .  S
C1388      C2157   1.487       .  S
C1390      C1397   1.491       .  S
C1392      C1464   1.494       .  S
C1393      C1394   1.402       .  A
C1393      C1398   1.398       .  A
C1393      F1411   1.358       .  S
C1394      C1395   1.401       .  A
C1394      C1399   1.476       .  S
C1395      C1396   1.399       .  A
C1395      F1400   1.358       .  S
C1396      C1397   1.415       .  A
C1396      F1412   1.358       .  S
C1397      C1398   1.412       .  A
C1398      F1401   1.358       .  S
C1399      C1402   1.404       .  A
C1399      C1406   1.405       .  A
C1402      C1403   1.397       .  A
C1402      F1407   1.358       .  S
C1403      C1404   1.403       .  A
C1403      F1409   1.358       .  S
C1404      C1405   1.406       .  A
C1405      C1406   1.400       .  A
C1405      F1408   1.358       .  S
C1406      F1410   1.358       .  S
C1413      C1414   1.406       .  A
C1413      C1418   1.402       .  A
C1413      F1431   1.357       .  S
C1414      C1415   1.405       .  A
C1414      C1419   1.481       .  S
C1415      C1416   1.395       .  A
C1415      F1420   1.358       .  S
C1416      C1417   1.406       .  A
C1416      F1432   1.359       .  S
C1417      C1418   1.407       .  A
C1418      F1421   1.358       .  S
C1419      C1422   1.405       .  A
C1419      C1426   1.405       .  A
C1422      C1423   1.401       .  A
C1422      F1427   1.358       .  S
C1423      C1424   1.408       .  A
C1423      F1429   1.357       .  S
C1424      C1425   1.406       .  A
C1425      C1426   1.397       .  A
C1425      F1428   1.358       .  S
C1426      F1430   1.358       .  S
C1433      C1434   1.407       .  A
C1433      C1438   1.399       .  A
C1433      F1451   1.358       .  S
C1434      C1435   1.408   1_455  A
C1435      C1436   1.400       .  A
C1435      F1440   1.358       .  S
C1436      C1437   1.403   1_655  A
C1436      F1452   1.357       .  S
C1437      C1438   1.404       .  A
C1438      F1441   1.357       .  S
C1439      C1442   1.407       .  A
C1439      C1446   1.409   1_455  A
C1442      C1443   1.397       .  A
C1442      F1447   1.358       .  S
C1443      C1444   1.404       .  A
C1443      F1449   1.357       .  S
C1444      C1445   1.403   1_455  A
C1445      C1446   1.399       .  A
C1445      F1448   1.357       .  S
C1446      F1450   1.358       .  S
C1453      C1454   1.407       .  A
C1453      C1458   1.402       .  A
C1453      F1471   1.358       .  S
C1454      C1455   1.406       .  A
C1454      C1459   1.487       .  S
C1455      C1456   1.400       .  A
C1455      F1460   1.358       .  S
C1456      C1457   1.406       .  A
C1456      F1472   1.358       .  S
C1457      C1458   1.405       .  A
C1458      F1461   1.357       .  S
C1459      C1462   1.405       .  A
C1459      C1466   1.404       .  A
C1462      C1463   1.401       .  A
C1462      F1467   1.358       .  S
C1463      C1464   1.412       .  A
C1463      F1469   1.358       .  S
C1464      C1465   1.413       .  A
C1465      C1466   1.401       .  A
C1465      F1468   1.358       .  S
C1466      F1470   1.358       .  S
C1473      C1474   1.403       .  A
C1473      C1478   1.401       .  A
C1473      F1491   1.358       .  S
C1474      C1475   1.405       .  A
C1474      C1479   1.479       .  S
C1475      C1476   1.397       .  A
C1475      F1480   1.358       .  S
C1476      C1477   1.408       .  A
C1476      F1492   1.358       .  S
C1477      C1478   1.410       .  A
C1478      F1481   1.358       .  S
C1479      C1482   1.405       .  A
C1479      C1486   1.406       .  A
C1482      C1483   1.396       .  A
C1482      F1487   1.358       .  S
C1483      C1484   1.403       .  A
C1483      F1489   1.358       .  S
C1484      C1485   1.405       .  A
C1485      C1486   1.401       .  A
C1485      F1488   1.358       .  S
C1486      F1490   1.358       .  S
C1493      C1494   1.406   1_546  A
C1493      C1498   1.398       .  A
C1493      F1511   1.358   1_556  S
C1494      C1495   1.409   1_554  A
C1495      C1496   1.403       .  A
C1495      F1500   1.358       .  S
C1496      C1497   1.405       .  A
C1496      F1512   1.357       .  S
C1497      C1498   1.405   1_565  A
C1498      F1501   1.357       .  S
C1499      C1502   1.410       .  A
C1499      C1506   1.410   1_565  A
C1502      C1503   1.400       .  A
C1502      F1507   1.358       .  S
C1503      C1504   1.403   1_565  A
C1503      F1509   1.357       .  S
C1504      C1505   1.404       .  A
C1505      C1506   1.402       .  A
C1505      F1508   1.357       .  S
C1506      F1510   1.358       .  S
C1513      C1514   1.403       .  A
C1513      C1518   1.395       .  A
C1513      F1531   1.358       .  S
C1514      C1515   1.407       .  A
C1514      C1519   1.479       .  S
C1515      C1516   1.399       .  A
C1515      F1520   1.358       .  S
C1516      C1517   1.406       .  A
C1516      F1532   1.357       .  S
C1517      C1518   1.409       .  A
C1518      F1521   1.358       .  S
C1519      C1522   1.404       .  A
C1519      C1526   1.408       .  A
C1522      C1523   1.394       .  A
C1522      F1527   1.358       .  S
C1523      C1524   1.403       .  A
C1523      F1529   1.358       .  S
C1524      C1525   1.406       .  A
C1525      C1526   1.401       .  A
C1525      F1528   1.358       .  S
C1526      F1530   1.358       .  S
C1533      C1534   1.406       .  A
C1533      C1538   1.398       .  A
C1533      F1551   1.358       .  S
C1534      C1535   1.406       .  A
C1534      C1539   1.481       .  S
C1535      C1536   1.398       .  A
C1535      F1540   1.358       .  S
C1536      C1537   1.405       .  A
C1536      F1552   1.357       .  S
C1537      C1538   1.405       .  A
C1538      F1541   1.358       .  S
C1539      C1542   1.404       .  A
C1539      C1546   1.406       .  A
C1542      C1543   1.395       .  A
C1542      F1547   1.358       .  S
C1543      C1544   1.409       .  A
C1543      F1549   1.358       .  S
C1544      C1545   1.410       .  A
C1545      C1546   1.401       .  A
C1545      F1548   1.358       .  S
C1546      F1550   1.358       .  S
C1553      C1554   1.407       .  A
C1553      C1558   1.399       .  A
C1553      F1571   1.357       .  S
C1554      C1555   1.409       .  A
C1554      C1559   1.487       .  S
C1555      C1556   1.401       .  A
C1555      F1560   1.358       .  S
C1556      C1557   1.404       .  A
C1556      F1572   1.357       .  S
C1557      C1558   1.404       .  A
C1558      F1561   1.357       .  S
C1559      C1562   1.405       .  A
C1559      C1566   1.407       .  A
C1562      C1563   1.400       .  A
C1562      F1567   1.358       .  S
C1563      C1564   1.408       .  A
C1563      F1569   1.356       .  S
C1564      C1565   1.410       .  A
C1565      C1566   1.402       .  A
C1565      F1568   1.357       .  S
C1566      F1570   1.358       .  S
C1573      C1574   1.407       .  A
C1573      C1578   1.402       .  A
C1573      F1591   1.358       .  S
C1574      C1575   1.407       .  A
C1574      C1579   1.489       .  S
C1575      C1576   1.398       .  A
C1575      F1580   1.358       .  S
C1576      C1577   1.409       .  A
C1576      F1592   1.358       .  S
C1577      C1578   1.409       .  A
C1578      F1581   1.358       .  S
C1579      C1582   1.409       .  A
C1579      C1586   1.408       .  A
C1582      C1583   1.401       .  A
C1582      F1587   1.357       .  S
C1583      C1584   1.403       .  A
C1583      F1589   1.358       .  S
C1584      C1585   1.404       .  A
C1585      C1586   1.399       .  A
C1585      F1588   1.358       .  S
C1586      F1590   1.358       .  S
C1593      C1594   1.406       .  A
C1593      C1598   1.402       .  A
C1593      F1611   1.358       .  S
C1594      C1595   1.407       .  A
C1594      C1599   1.483       .  S
C1595      C1596   1.397       .  A
C1595      F1600   1.358       .  S
C1596      C1597   1.405       .  A
C1596      F1612   1.358       .  S
C1597      C1598   1.407       .  A
C1598      F1601   1.358       .  S
C1599      C1602   1.408       .  A
C1599      C1606   1.406       .  A
C1602      C1603   1.402       .  A
C1602      F1607   1.358       .  S
C1603      C1604   1.404       .  A
C1603      F1609   1.358       .  S
C1604      C1605   1.403       .  A
C1605      C1606   1.396       .  A
C1605      F1608   1.358       .  S
C1606      F1610   1.358       .  S
C1613      C1614   1.401       .  A
C1613      C1618   1.395       .  A
C1613      F1631   1.358       .  S
C1614      C1615   1.405       .  A
C1614      C1619   1.477       .  S
C1615      C1616   1.403       .  A
C1615      F1620   1.357       .  S
C1616      C1617   1.409       .  A
C1616      F1632   1.357       .  S
C1617      C1618   1.409       .  A
C1618      F1621   1.358       .  S
C1619      C1622   1.402       .  A
C1619      C1626   1.402       .  A
C1622      C1623   1.399       .  A
C1622      F1627   1.358       .  S
C1623      C1624   1.414       .  A
C1623      F1629   1.358       .  S
C1624      C1625   1.414       .  A
C1625      C1626   1.400       .  A
C1625      F1628   1.358       .  S
C1626      F1630   1.358       .  S
C1633      C1634   1.404       .  A
C1633      C1638   1.399       .  A
C1633      F1651   1.358       .  S
C1634      C1635   1.404       .  A
C1634      C1639   1.483       .  S
C1635      C1636   1.403       .  A
C1635      F1640   1.358       .  S
C1636      C1637   1.412       .  A
C1636      F1652   1.358       .  S
C1637      C1638   1.412       .  A
C1638      F1641   1.358       .  S
C1639      C1642   1.404       .  A
C1639      C1646   1.406       .  A
C1642      C1643   1.398       .  A
C1642      F1647   1.358       .  S
C1643      C1644   1.407       .  A
C1643      F1649   1.358       .  S
C1644      C1645   1.407       .  A
C1645      C1646   1.402       .  A
C1645      F1648   1.357       .  S
C1646      F1650   1.357       .  S
C1653      C1654   1.406       .  A
C1653      C1658   1.396       .  A
C1653      F1671   1.358       .  S
C1654      C1655   1.408       .  A
C1654      C1659   1.484       .  S
C1655      C1656   1.401       .  A
C1655      F1660   1.358       .  S
C1656      C1657   1.405       .  A
C1656      F1672   1.358       .  S
C1657      C1658   1.404       .  A
C1658      F1661   1.358       .  S
C1659      C1662   1.406       .  A
C1659      C1666   1.406       .  A
C1662      C1663   1.402       .  A
C1662      F1667   1.358       .  S
C1663      C1664   1.410       .  A
C1663      F1669   1.358       .  S
C1664      C1665   1.409       .  A
C1665      C1666   1.398       .  A
C1665      F1668   1.358       .  S
C1666      F1670   1.358       .  S
C1673      C1674   1.406       .  A
C1673      C1678   1.398       .  A
C1673      F1691   1.358       .  S
C1674      C1675   1.406       .  A
C1674      C1679   1.482       .  S
C1675      C1676   1.399       .  A
C1675      F1680   1.358       .  S
C1676      C1677   1.405       .  A
C1676      F1692   1.357       .  S
C1677      C1678   1.405       .  A
C1678      F1681   1.358       .  S
C1679      C1682   1.404       .  A
C1679      C1686   1.404       .  A
C1682      C1683   1.401       .  A
C1682      F1687   1.358       .  S
C1683      C1684   1.413       .  A
C1683      F1689   1.358       .  S
C1684      C1685   1.412       .  A
C1685      C1686   1.398       .  A
C1685      F1688   1.358       .  S
C1686      F1690   1.358       .  S
C1693      C1694   1.408   1_545  A
C1693      C1698   1.403       .  A
C1693      F1711   1.358       .  S
C1694      C1695   1.409       .  A
C1695      C1696   1.401       .  A
C1695      F1700   1.358       .  S
C1696      C1697   1.404       .  A
C1696      F1712   1.357       .  S
C1697      C1698   1.406   1_565  A
C1698      F1701   1.357       .  S
C1699      C1702   1.408   1_545  A
C1699      C1706   1.406       .  A
C1702      C1703   1.401       .  A
C1702      F1707   1.358       .  S
C1703      C1704   1.405       .  A
C1703      F1709   1.357       .  S
C1704      C1705   1.405   1_565  A
C1705      C1706   1.398       .  A
C1705      F1708   1.357       .  S
C1706      F1710   1.358       .  S
C1713      C1714   1.401       .  A
C1713      C1718   1.399       .  A
C1713      F1731   1.358       .  S
C1714      C1715   1.402       .  A
C1714      C1719   1.477       .  S
C1715      C1716   1.399       .  A
C1715      F1720   1.358       .  S
C1716      C1717   1.414       .  A
C1716      F1732   1.358       .  S
C1717      C1718   1.413       .  A
C1718      F1721   1.357       .  S
C1719      C1722   1.403       .  A
C1719      C1726   1.405       .  A
C1722      C1723   1.396       .  A
C1722      F1727   1.358       .  S
C1723      C1724   1.406       .  A
C1723      F1729   1.358       .  S
C1724      C1725   1.406       .  A
C1725      C1726   1.401       .  A
C1725      F1728   1.357       .  S
C1726      F1730   1.358       .  S
C1733      C1734   1.407       .  A
C1733      C1738   1.401       .  A
C1733      F1751   1.358       .  S
C1734      C1735   1.407       .  A
C1734      C1739   1.486       .  S
C1735      C1736   1.400       .  A
C1735      F1740   1.358       .  S
C1736      C1737   1.406       .  A
C1736      F1752   1.358       .  S
C1737      C1738   1.405       .  A
C1738      F1741   1.358       .  S
C1739      C1742   1.407       .  A
C1739      C1746   1.406       .  A
C1742      C1743   1.403       .  A
C1742      F1747   1.358       .  S
C1743      C1744   1.408       .  A
C1743      F1749   1.357       .  S
C1744      C1745   1.406       .  A
C1745      C1746   1.397       .  A
C1745      F1748   1.358       .  S
C1746      F1750   1.358       .  S
C1753      C1754   1.407       .  A
C1753      C1758   1.398       .  A
C1753      F1771   1.358       .  S
C1754      C1755   1.408       .  A
C1754      C1759   1.484       .  S
C1755      C1756   1.399       .  A
C1755      F1760   1.357       .  S
C1756      C1757   1.402       .  A
C1756      F1772   1.357       .  S
C1757      C1758   1.404       .  A
C1758      F1761   1.357       .  S
C1759      C1762   1.407       .  A
C1759      C1766   1.406       .  A
C1762      C1763   1.400       .  A
C1762      F1767   1.358       .  S
C1763      C1764   1.406       .  A
C1763      F1769   1.357       .  S
C1764      C1765   1.406       .  A
C1765      C1766   1.400       .  A
C1765      F1768   1.357       .  S
C1766      F1770   1.358       .  S
C1773      C1774   1.402       .  A
C1773      C1778   1.398       .  A
C1773      F1791   1.358       .  S
C1774      C1775   1.404       .  A
C1774      C1779   1.482       .  S
C1775      C1776   1.402       .  A
C1775      F1780   1.358       .  S
C1776      C1777   1.413       .  A
C1776      F1792   1.358       .  S
C1777      C1778   1.414       .  A
C1778      F1781   1.358       .  S
C1779      C1782   1.406       .  A
C1779      C1786   1.406       .  A
C1782      C1783   1.401       .  A
C1782      F1787   1.358       .  S
C1783      C1784   1.406       .  A
C1783      F1789   1.357       .  S
C1784      C1785   1.404       .  A
C1785      C1786   1.398       .  A
C1785      F1788   1.358       .  S
C1786      F1790   1.358       .  S
C1793      C1794   1.402       .  A
C1793      C1798   1.397       .  A
C1793      F1811   1.358       .  S
C1794      C1795   1.401       .  A
C1794      C1799   1.474       .  S
C1795      C1796   1.398       .  A
C1795      F1800   1.358       .  S
C1796      C1797   1.412       .  A
C1796      F1812   1.358       .  S
C1797      C1798   1.412       .  A
C1798      F1801   1.358       .  S
C1799      C1802   1.405       .  A
C1799      C1806   1.402       .  A
C1802      C1803   1.402       .  A
C1802      F1807   1.358       .  S
C1803      C1804   1.406       .  A
C1803      F1809   1.357       .  S
C1804      C1805   1.406       .  A
C1805      C1806   1.395       .  A
C1805      F1808   1.358       .  S
C1806      F1810   1.358       .  S
C1813      C1814   1.404       .  A
C1813      C1818   1.399       .  A
C1813      F1831   1.358       .  S
C1814      C1815   1.403       .  A
C1814      C1819   1.475       .  S
C1815      C1816   1.395       .  A
C1815      F1820   1.358       .  S
C1816      C1817   1.406       .  A
C1816      F1832   1.358       .  S
C1817      C1818   1.407       .  A
C1818      F1821   1.357       .  S
C1819      C1822   1.403       .  A
C1819      C1826   1.402       .  A
C1822      C1823   1.396       .  A
C1822      F1827   1.358       .  S
C1823      C1824   1.411       .  A
C1823      F1829   1.358       .  S
C1824      C1825   1.412       .  A
C1825      C1826   1.397       .  A
C1825      F1828   1.358       .  S
C1826      F1830   1.358       .  S
C1833      C1834   1.404       .  A
C1833      C1838   1.399       .  A
C1833      F1851   1.358       .  S
C1834      C1835   1.404       .  A
C1834      C1839   1.483       .  S
C1835      C1836   1.400       .  A
C1835      F1840   1.358       .  S
C1836      C1837   1.411       .  A
C1836      F1852   1.358       .  S
C1837      C1838   1.413       .  A
C1838      F1841   1.358       .  S
C1839      C1842   1.408       .  A
C1839      C1846   1.405       .  A
C1842      C1843   1.401       .  A
C1842      F1847   1.358       .  S
C1843      C1844   1.403       .  A
C1843      F1849   1.357       .  S
C1844      C1845   1.405       .  A
C1845      C1846   1.398       .  A
C1845      F1848   1.358       .  S
C1846      F1850   1.358       .  S
C1853      C1854   1.406       .  A
C1853      C1858   1.399       .  A
C1853      F1871   1.358       .  S
C1854      C1855   1.409       .  A
C1854      C1859   1.490       .  S
C1855      C1856   1.402       .  A
C1855      F1860   1.358       .  S
C1856      C1857   1.407       .  A
C1856      F1872   1.357       .  S
C1857      C1858   1.409       .  A
C1858      F1861   1.358       .  S
C1859      C1862   1.410       .  A
C1859      C1866   1.407       .  A
C1862      C1863   1.403       .  A
C1862      F1867   1.358       .  S
C1863      C1864   1.406       .  A
C1863      F1869   1.358       .  S
C1864      C1865   1.406       .  A
C1865      C1866   1.398       .  A
C1865      F1868   1.358       .  S
C1866      F1870   1.358       .  S
C1873      C1874   1.405       .  A
C1873      C1878   1.400       .  A
C1873      F1891   1.358       .  S
C1874      C1875   1.407       .  A
C1874      C1879   1.484       .  S
C1875      C1876   1.400       .  A
C1875      F1880   1.358       .  S
C1876      C1877   1.408       .  A
C1876      F1892   1.358       .  S
C1877      C1878   1.409       .  A
C1878      F1881   1.358       .  S
C1879      C1882   1.407       .  A
C1879      C1886   1.408       .  A
C1882      C1883   1.399       .  A
C1882      F1887   1.358       .  S
C1883      C1884   1.403       .  A
C1883      F1889   1.358       .  S
C1884      C1885   1.402       .  A
C1885      C1886   1.400       .  A
C1885      F1888   1.358       .  S
C1886      F1890   1.358       .  S
C1893      C1894   1.406       .  A
C1893      C1898   1.400       .  A
C1893      F1911   1.358       .  S
C1894      C1895   1.406       .  A
C1894      C1899   1.484       .  S
C1895      C1896   1.399       .  A
C1895      F1900   1.358       .  S
C1896      C1897   1.405       .  A
C1896      F1912   1.357       .  S
C1897      C1898   1.406       .  A
C1898      F1901   1.356       .  S
C1899      C1902   1.406       .  A
C1899      C1906   1.407       .  A
C1902      C1903   1.399       .  A
C1902      F1907   1.358       .  S
C1903      C1904   1.406       .  A
C1903      F1909   1.357       .  S
C1904      C1905   1.404       .  A
C1905      C1906   1.399       .  A
C1905      F1908   1.357       .  S
C1906      F1910   1.358       .  S
C1913      C1914   1.408       .  A
C1913      C1918   1.398       .  A
C1913      F1931   1.358       .  S
C1914      C1915   1.409       .  A
C1914      C1919   1.487       .  S
C1915      C1916   1.399       .  A
C1915      F1920   1.357       .  S
C1916      C1917   1.403       .  A
C1916      F1932   1.357       .  S
C1917      C1918   1.405       .  A
C1918      F1921   1.358       .  S
C1919      C1922   1.407       .  A
C1919      C1926   1.407       .  A
C1922      C1923   1.401       .  A
C1922      F1927   1.358       .  S
C1923      C1924   1.409       .  A
C1923      F1929   1.358       .  S
C1924      C1925   1.409       .  A
C1925      C1926   1.397       .  A
C1925      F1928   1.358       .  S
C1926      F1930   1.358       .  S
C1933      C1934   1.406       .  A
C1933      C1938   1.401       .  A
C1933      F1951   1.358       .  S
C1934      C1935   1.406       .  A
C1934      C1939   1.487       .  S
C1935      C1936   1.401       .  A
C1935      F1940   1.358       .  S
C1936      C1937   1.411       .  A
C1936      F1952   1.358       .  S
C1937      C1938   1.410       .  A
C1938      F1941   1.358       .  S
C1939      C1942   1.406       .  A
C1939      C1946   1.408       .  A
C1942      C1943   1.398       .  A
C1942      F1947   1.358       .  S
C1943      C1944   1.407       .  A
C1943      F1949   1.358       .  S
C1944      C1945   1.406       .  A
C1945      C1946   1.403       .  A
C1945      F1948   1.357       .  S
C1946      F1950   1.358       .  S
C1953      C1954   1.404       .  A
C1953      C1958   1.403       .  A
C1953      F1971   1.358       .  S
C1954      C1955   1.403       .  A
C1954      C1959   1.484       .  S
C1955      C1956   1.400       .  A
C1955      F1960   1.358       .  S
C1956      C1957   1.413       .  A
C1956      F1972   1.358       .  S
C1957      C1958   1.415       .  A
C1958      F1961   1.358       .  S
C1959      C1962   1.405       .  A
C1959      C1966   1.407       .  A
C1962      C1963   1.400       .  A
C1962      F1967   1.358       .  S
C1963      C1964   1.405       .  A
C1963      F1969   1.358       .  S
C1964      C1965   1.406       .  A
C1965      C1966   1.402       .  A
C1965      F1968   1.357       .  S
C1966      F1970   1.358       .  S
C1973      C1974   1.406       .  A
C1973      C1978   1.399       .  A
C1973      F1991   1.358       .  S
C1974      C1975   1.406       .  A
C1974      C1979   1.479       .  S
C1975      C1976   1.398       .  A
C1975      F1980   1.358       .  S
C1976      C1977   1.404       .  A
C1976      F1992   1.358       .  S
C1977      C1978   1.404       .  A
C1978      F1981   1.358       .  S
C1979      C1982   1.404       .  A
C1979      C1986   1.406       .  A
C1982      C1983   1.396       .  A
C1982      F1987   1.358       .  S
C1983      C1984   1.407       .  A
C1983      F1989   1.358       .  S
C1984      C1985   1.407       .  A
C1985      C1986   1.400       .  A
C1985      F1988   1.357       .  S
C1986      F1990   1.358       .  S
C1993      C1994   1.400       .  A
C1993      C1998   1.396       .  A
C1993      F2011   1.358       .  S
C1994      C1995   1.402       .  A
C1994      C1999   1.474       .  S
C1995      C1996   1.400       .  A
C1995      F2000   1.358       .  S
C1996      C1997   1.413       .  A
C1996      F2012   1.357       .  S
C1997      C1998   1.414       .  A
C1998      F2001   1.358       .  S
C1999      C2002   1.403       .  A
C1999      C2006   1.405       .  A
C2002      C2003   1.397       .  A
C2002      F2007   1.358       .  S
C2003      C2004   1.406       .  A
C2003      F2009   1.358       .  S
C2004      C2005   1.404       .  A
C2005      C2006   1.399       .  A
C2005      F2008   1.357       .  S
C2006      F2010   1.358       .  S
C2013      C2014   1.404       .  A
C2013      C2018   1.399       .  A
C2013      F2031   1.358       .  S
C2014      C2015   1.403       .  A
C2014      C2019   1.481       .  S
C2015      C2016   1.399       .  A
C2015      F2020   1.358       .  S
C2016      C2017   1.412       .  A
C2016      F2032   1.358       .  S
C2017      C2018   1.412       .  A
C2018      F2021   1.358       .  S
C2019      C2022   1.407       .  A
C2019      C2026   1.406       .  A
C2022      C2023   1.398       .  A
C2022      F2027   1.358       .  S
C2023      C2024   1.404       .  A
C2023      F2029   1.358       .  S
C2024      C2025   1.405       .  A
C2025      C2026   1.399       .  A
C2025      F2028   1.357       .  S
C2026      F2030   1.358       .  S
C2033      C2034   1.407       .  A
C2033      C2038   1.399       .  A
C2033      F2051   1.358       .  S
C2034      C2035   1.408       .  A
C2034      C2039   1.487       .  S
C2035      C2036   1.399       .  A
C2035      F2040   1.358       .  S
C2036      C2037   1.406       .  A
C2036      F2052   1.357       .  S
C2037      C2038   1.406       .  A
C2038      F2041   1.358       .  S
C2039      C2042   1.407       .  A
C2039      C2046   1.409       .  A
C2042      C2043   1.396       .  A
C2042      F2047   1.358       .  S
C2043      C2044   1.406       .  A
C2043      F2049   1.358       .  S
C2044      C2045   1.407       .  A
C2045      C2046   1.403       .  A
C2045      F2048   1.358       .  S
C2046      F2050   1.358       .  S
C2053      C2054   1.407       .  A
C2053      C2058   1.401       .  A
C2053      F2071   1.358       .  S
C2054      C2055   1.407       .  A
C2054      C2059   1.485       .  S
C2055      C2056   1.399       .  A
C2055      F2060   1.358       .  S
C2056      C2057   1.405       .  A
C2056      F2072   1.358       .  S
C2057      C2058   1.405       .  A
C2058      F2061   1.357       .  S
C2059      C2062   1.405       .  A
C2059      C2066   1.404       .  A
C2062      C2063   1.401       .  A
C2062      F2067   1.358       .  S
C2063      C2064   1.412       .  A
C2063      F2069   1.357       .  S
C2064      C2065   1.415       .  A
C2065      C2066   1.399       .  A
C2065      F2068   1.358       .  S
C2066      F2070   1.358       .  S
C2073      C2074   1.409       .  A
C2073      C2078   1.401       .  A
C2073      F2091   1.358       .  S
C2074      C2075   1.407   1_455  A
C2075      C2076   1.398       .  A
C2075      F2080   1.358       .  S
C2076      C2077   1.404   1_655  A
C2076      F2092   1.357       .  S
C2077      C2078   1.405       .  A
C2078      F2081   1.357       .  S
C2079      C2082   1.407       .  A
C2079      C2086   1.406   1_455  A
C2082      C2083   1.399       .  A
C2082      F2087   1.358       .  S
C2083      C2084   1.405   1_455  A
C2083      F2089   1.357       .  S
C2084      C2085   1.406       .  A
C2085      C2086   1.400       .  A
C2085      F2088   1.357       .  S
C2086      F2090   1.358       .  S
C2093      C2094   1.405       .  A
C2093      C2098   1.396       .  A
C2093      F2111   1.358       .  S
C2094      C2095   1.408       .  A
C2094      C2099   1.487       .  S
C2095      C2096   1.403       .  A
C2095      F2100   1.358       .  S
C2096      C2097   1.408       .  A
C2096      F2112   1.356       .  S
C2097      C2098   1.409       .  A
C2098      F2101   1.358       .  S
C2099      C2102   1.407       .  A
C2099      C2106   1.407       .  A
C2102      C2103   1.401       .  A
C2102      F2107   1.358       .  S
C2103      C2104   1.407       .  A
C2103      F2109   1.358       .  S
C2104      C2105   1.408       .  A
C2105      C2106   1.400       .  A
C2105      F2108   1.358       .  S
C2106      F2110   1.358       .  S
C2113      C2114   1.405       .  A
C2113      C2118   1.396       .  A
C2113      F2131   1.358       .  S
C2114      C2115   1.406       .  A
C2114      C2119   1.480       .  S
C2115      C2116   1.399       .  A
C2115      F2120   1.358       .  S
C2116      C2117   1.406       .  A
C2116      F2132   1.357       .  S
C2117      C2118   1.406       .  A
C2118      F2121   1.358       .  S
C2119      C2122   1.405       .  A
C2119      C2126   1.406       .  A
C2122      C2123   1.399       .  A
C2122      F2127   1.358       .  S
C2123      C2124   1.408       .  A
C2123      F2129   1.358       .  S
C2124      C2125   1.406       .  A
C2125      C2126   1.396       .  A
C2125      F2128   1.358       .  S
C2126      F2130   1.358       .  S
C2133      C2134   1.401       .  A
C2133      C2138   1.394       .  A
C2133      F2151   1.358       .  S
C2134      C2135   1.403       .  A
C2134      C2139   1.468       .  S
C2135      C2136   1.397       .  A
C2135      F2140   1.358       .  S
C2136      C2137   1.406       .  A
C2136      F2152   1.357       .  S
C2137      C2138   1.405       .  A
C2138      F2141   1.358       .  S
C2139      C2142   1.401       .  A
C2139      C2146   1.400       .  A
C2142      C2143   1.399       .  A
C2142      F2147   1.358       .  S
C2143      C2144   1.411       .  A
C2143      F2149   1.358       .  S
C2144      C2145   1.411       .  A
C2145      C2146   1.393       .  A
C2145      F2148   1.358       .  S
C2146      F2150   1.359       .  S
C2153      C2154   1.400       .  A
C2153      C2158   1.398       .  A
C2153      F2171   1.358       .  S
C2154      C2155   1.400       .  A
C2154      C2159   1.471       .  S
C2155      C2156   1.396       .  A
C2155      F2160   1.358       .  S
C2156      C2157   1.413       .  A
C2156      F2172   1.358       .  S
C2157      C2158   1.413       .  A
C2158      F2161   1.358       .  S
C2159      C2162   1.402       .  A
C2159      C2166   1.403       .  A
C2162      C2163   1.395       .  A
C2162      F2167   1.358       .  S
C2163      C2164   1.406       .  A
C2163      F2169   1.358       .  S
C2164      C2165   1.404       .  A
C2165      C2166   1.397       .  A
C2165      F2168   1.357       .  S
C2166      F2170   1.357       .  S
C2173      C2174   1.408       .  A
C2173      C2178   1.399       .  A
C2173      F2191   1.358       .  S
C2174      C2175   1.409       .  A
C2174      C2179   1.489       .  S
C2175      C2176   1.403       .  A
C2175      F2180   1.357       .  S
C2176      C2177   1.405       .  A
C2176      F2192   1.357       .  S
C2177      C2178   1.405       .  A
C2178      F2181   1.357       .  S
C2179      C2182   1.408       .  A
C2179      C2186   1.407       .  A
C2182      C2183   1.400       .  A
C2182      F2187   1.358       .  S
C2183      C2184   1.406       .  A
C2183      F2189   1.357       .  S
C2184      C2185   1.408       .  A
C2185      C2186   1.402       .  A
C2185      F2188   1.357       .  S
C2186      F2190   1.358       .  S
