geometry optimzed in LAMMPS
_audit_creation_date              2020-12-01 
_audit_creation_method            'lammps2cif' 
_symmetry_space_group_name_H-M    'P1' 
_symmetry_Int_Tables_number       1 
_symmetry_cell_setting            triclinic 
loop_ 
_symmetry_equiv_pos_as_xyz 
  x,y,z 
_cell_length_a                    35.94409317 
_cell_length_b                    35.81189953751393 
_cell_length_c                    25.935087867633612 
_cell_angle_alpha                 89.97815549888246 
_cell_angle_beta                  90.09251832697417 
_cell_angle_gamma                 120.20262831976947 
loop_ 
_atom_site_label 
_atom_site_type_symbol 
_atom_site_fract_x 
_atom_site_fract_y 
_atom_site_fract_z 
_atom_site_charge 
C1          C  0.33065422  0.16884003  0.08299187     0.30400
C2          C  0.33258823  0.16941247  0.97664712     0.30400
C3          C  0.35112426  0.14418171  0.05758031    -0.05800
C4          C  0.28696228  0.15011409  0.05532838    -0.06600
C5          C  0.35779669  0.21368208  0.05706043    -0.06500
C6          C  0.35026563  0.14314964  0.00367772    -0.05800
C7          C  0.28789832  0.14904622  0.00164670    -0.06600
C8          C  0.35717455  0.21332424  0.00326252    -0.06500
C9          C  0.36661879  0.11750150  0.98843751    -0.31900
N10         N  0.38071687  0.10600966  0.03051289     0.14600
C11         C  0.37202179  0.12229528  0.07309569    -0.31900
H12         H  0.38028845  0.11852202  0.11216454     0.16600
C13         C  0.24585336  0.12691754  0.98521522    -0.30900
N14         N  0.21986073  0.11778102  0.02668721     0.13300
C15         C  0.24432806  0.13149342  0.06995451    -0.30900
C16         C  0.38069374  0.25509696  0.98642125    -0.31200
N17         N  0.39705685  0.28109636  0.02799947     0.13800
H18         H  0.38556590  0.26596008  0.94674289     0.16500
C19         C  0.38485826  0.25647610  0.07130710    -0.31200
H20         H  0.39406836  0.26905384  0.11003184     0.16500
H21         H  0.23203037  0.12730869  0.10885682     0.16500
H22         H  0.36922118  0.10850232  0.94937634     0.16500
H23         H  0.23471370  0.11857726  0.94581553     0.16500
C24         C  0.33632930  0.16864474  0.47660986     0.30400
C25         C  0.33782126  0.16877687  0.58295070     0.30400
C26         C  0.36043491  0.14824939  0.50209007    -0.05800
C27         C  0.35595026  0.21276324  0.50278681    -0.06600
C28         C  0.29235785  0.14268955  0.50359753    -0.06500
C29         C  0.36256482  0.14969227  0.55576180    -0.05800
C30         C  0.35570016  0.21344328  0.55656392    -0.07000
C31         C  0.29258080  0.14410185  0.55748339    -0.06500
C32         C  0.38643960  0.13100697  0.57078227    -0.31900
N33         N  0.39690754  0.11686749  0.52773981     0.14600
C34         C  0.37995200  0.12572884  0.48610036    -0.31900
H35         H  0.38249499  0.11698743  0.44683569     0.16600
C36         C  0.37135508  0.25627453  0.57043654    -0.30900
N37         N  0.38366522  0.28066349  0.52693436     0.13300
C38         C  0.37413456  0.25444538  0.48559061    -0.30900
C39         C  0.24974088  0.12259410  0.57284981    -0.31200
N40         N  0.22469669  0.10606735  0.53024871     0.13800
H41         H  0.23770077  0.11919816  0.61182149     0.16500
C42         C  0.25028058  0.11713759  0.48827527    -0.31200
H43         H  0.23864011  0.10796852  0.44920244     0.16500
H44         H  0.38000065  0.26507702  0.44582478     0.16500
H45         H  0.39469685  0.12713284  0.60976798     0.16500
H46         H  0.37472175  0.26901400  0.60906057     0.16500
C47         C  0.16511328  0.33929158  0.02312674     0.30400
C48         C  0.16534886  0.33891713  0.91673525     0.30400
C49         C  0.14688744  0.36442107  0.99631757    -0.05800
C50         C  0.20939711  0.35671477  0.99732141    -0.06600
C51         C  0.14048773  0.29456304  0.99722231    -0.06500
C52         C  0.14716669  0.36475290  0.94281359    -0.05800
C53         C  0.20993835  0.35647760  0.94336415    -0.06600
C54         C  0.14000681  0.29394068  0.94319013    -0.06500
C55         C  0.12807754  0.38811290  0.92721223    -0.31900
N56         N  0.11596026  0.40082986  0.97014473     0.14600
C57         C  0.12720786  0.38658362  0.01235700    -0.31900
H58         H  0.12094738  0.39159107  0.05180371     0.16600
C59         C  0.25230143  0.37072847  0.92912283    -0.30900
N60         N  0.27674515  0.38124581  0.97242590     0.13300
C61         C  0.25078432  0.37102169  0.01391621    -0.30900
C62         C  0.11874522  0.25069174  0.92872967    -0.31200
N63         N  0.10635481  0.22610032  0.97208207     0.13800
H64         H  0.11332253  0.23801122  0.88985689     0.16500
C65         C  0.12099135  0.25239902  0.01367366    -0.31200
H66         H  0.11742537  0.24135093  0.05316893     0.16500
H67         H  0.26175559  0.37437118  0.05339810     0.16500
H68         H  0.12221519  0.39417896  0.88798491     0.16500
H69         H  0.26475027  0.37423600  0.89038206     0.16500
C70         C  0.17246778  0.33872333  0.41667248     0.30400
C71         C  0.17323352  0.33948002  0.52308591     0.30400
C72         C  0.14548969  0.35634422  0.44302378    -0.05800
C73         C  0.15283874  0.29385641  0.44336361    -0.06600
C74         C  0.21655393  0.36468158  0.44277070    -0.06500
C75         C  0.14633475  0.35677154  0.49699130    -0.05800
C76         C  0.15304126  0.29465987  0.49739670    -0.06600
C77         C  0.21660201  0.36457107  0.49628134    -0.06500
C78         C  0.11928852  0.37112772  0.51329026    -0.31900
N79         N  0.10359758  0.38127715  0.47162002     0.14600
C80         C  0.11740349  0.37055341  0.42850034    -0.31900
H81         H  0.10838835  0.37389195  0.38968472     0.16600
C82         C  0.13054539  0.25253237  0.51403818    -0.30900
N83         N  0.11889510  0.22610920  0.47255977     0.13300
C84         C  0.13100247  0.25056886  0.42909591    -0.30900
C85         C  0.25853845  0.38674018  0.51230235    -0.31200
N86         N  0.28395454  0.40069386  0.47006863     0.13800
H87         H  0.26992823  0.39188684  0.55175903     0.16500
C88         C  0.25900621  0.38786228  0.42714256    -0.31200
H89         H  0.27086131  0.39369506  0.38792104     0.16500
H90         H  0.12380651  0.23777046  0.39026549     0.16500
H91         H  0.11163572  0.37454420  0.55267201     0.16500
H92         H  0.12322642  0.24160730  0.55358404     0.16500
O93         O  0.05494127  0.48649287  0.03405450    -0.88000
C94         C  0.06461769  0.07020492  0.92128839     0.88000
Mg95       Mg  0.00875097  0.41916598  0.03374739     1.58100
O96         O  0.01673613  0.07721510  0.03630746    -0.87700
O97         O  0.07392106  0.04132941  0.08578338    -0.75100
C98         C  0.32268834  0.40444363  0.97599298     0.93100
O99         O  0.03527484  0.46734877  0.91221185    -0.74900
O100        O  0.34305859  0.38474292  0.96664305    -0.82400
Mg101      Mg  0.09155743  0.01307234  0.96365105     1.58000
C102        C  0.40343692  0.08285846  0.02734203     0.93000
O103        O  0.15414569  0.05907723  0.00451055    -0.80600
H104        H  0.01871663  0.08741539  0.11227963    -0.06000
C105        C  0.43254193  0.50351740  0.92230994     0.87900
O106        O  0.46291144  0.42849493  0.08629532    -0.75100
O107        O  0.07177004  0.06011113  0.96415422    -0.87900
O108        O  0.44241684  0.10318458  0.01172895    -0.80700
C109        C  0.08154008  0.18002577  0.97593727     0.93100
C110        C  0.17414551  0.09704659  0.02308664     0.93000
Mg111      Mg  0.40464123  0.49246158  0.03464531     1.58000
O112        O  0.34136812  0.44318907  0.99315052    -0.80600
O113        O  0.46114357  0.03924372  0.08626316    -0.74900
O114        O  0.10036462  0.16026644  0.99238002    -0.80700
O115        O  0.11316367  0.46391552  0.96249147    -0.82400
O116        O  0.40057487  0.34564557  0.00675542    -0.80800
C117        C  0.49976881  0.06923199  0.07935961     0.87400
O118        O  0.42528075  0.44581293  0.03571242    -0.87900
O119        O  0.44226274  0.02037216  0.96545877    -0.88000
O120        O  0.42355659  0.46481685  0.91483518    -0.75100
Mg121      Mg  0.08411443  0.09746783  0.03430042     1.58000
O122        O  0.04093573  0.16078821  0.96839189    -0.82400
H123        H  0.06444304  0.48322356  0.10946450    -0.06200
O124        O  0.48143553  0.42965364  0.96430993    -0.87700
H125        H  0.47748909  0.41818513  0.88854077    -0.06000
H126        H  0.41431129  0.43702754  0.11147404    -0.06200
C127        C  0.99723866  0.43697329  0.92068033     0.87400
C128        C  0.06498244  0.00282842  0.07741846     0.88000
C129        C  0.43280197  0.43659641  0.07888403     0.88000
H130        H  0.43291332  0.02262378  0.88979286    -0.06100
O131        O  0.03499424  0.07910198  0.91435703    -0.75200
Mg132      Mg  0.41445577  0.40830367  0.96591799     1.58000
H133        H  0.08301455  0.06990471  0.88852370    -0.06200
C134        C  0.09336036  0.42387072  0.97299630     0.93000
O135        O  0.46029665  0.34754319  0.03432963    -0.82400
C136        C  0.42022238  0.32708461  0.02458095     0.93100
O137        O  0.15539549  0.11826748  0.03350711    -0.82400
Mg138      Mg  0.48964789  0.08856685  0.96763286     1.58200
O139        O  0.05554747  0.40442152  0.99172737    -0.80700
O140        O  0.38282335  0.04211773  0.03423424    -0.82400
O141        O  0.48752596  0.06011478  0.46444341    -0.88000
C142        C  0.06889271  0.06881325  0.57927439     0.88000
Mg143      Mg  0.42069459  0.01289665  0.46390817     1.58100
O144        O  0.07728478  0.02050690  0.46491624    -0.87700
O145        O  0.04315157  0.07937089  0.41444234    -0.75100
C146        C  0.40620127  0.32664941  0.52321513     0.93100
O147        O  0.46679410  0.04059896  0.58593267    -0.74900
O148        O  0.38647624  0.34689683  0.53322298    -0.82400
Mg149      Mg  0.01267146  0.09712066  0.53483065     1.58000
C150        C  0.08096035  0.40453515  0.47488657     0.93000
O151        O  0.05920241  0.16017430  0.49327450    -0.80600
H152        H  0.08886966  0.02315283  0.38926360    -0.06000
C153        C  0.50317756  0.43599144  0.57785766     0.87900
O154        O  0.43118991  0.46759110  0.41186454    -0.75100
O155        O  0.05984826  0.07702371  0.53633930    -0.87900
O156        O  0.10109876  0.44324562  0.49217030    -0.80700
C157        C  0.17878098  0.08290357  0.52698657     0.93100
C158        C  0.09771671  0.18004447  0.47655933     0.93000
Mg159      Mg  0.49302668  0.40832317  0.46466483     1.58000
O160        O  0.44432170  0.34544116  0.50512179    -0.80600
O161        O  0.04043415  0.46514842  0.41392800    -0.74900
O162        O  0.16011583  0.10326986  0.51161517    -0.80700
O163        O  0.46206916  0.11771886  0.53454684    -0.82400
O164        O  0.34796054  0.40395589  0.49110853    -0.80800
C165        C  0.07014656  0.50386252  0.42164881     0.87400
O166        O  0.44730842  0.42950113  0.46340144    -0.87900
O167        O  0.01980520  0.44554584  0.53469746    -0.88000
O168        O  0.46494273  0.42773160  0.58543825    -0.75100
Mg169      Mg  0.09813348  0.08870283  0.46756505     1.58000
O170        O  0.15862869  0.04212759  0.53355778    -0.82400
H171        H  0.48579654  0.07025739  0.38891490    -0.06200
O172        O  0.43093005  0.48594417  0.53386966    -0.87700
H173        H  0.41829264  0.48225678  0.60929429    -0.06000
H174        H  0.43972384  0.41864480  0.38751405    -0.06200
C175        C  0.43727858  0.00206043  0.57735593     0.87400
C176        C  0.00463787  0.07042999  0.42156579     0.88000
C177        C  0.43880808  0.43716259  0.41990177     0.88000
H178        H  0.02223612  0.43626808  0.61032814    -0.06100
O179        O  0.07748459  0.03880065  0.58584867    -0.75200
Mg180      Mg  0.40965818  0.41858262  0.53300578     1.58000
H181        H  0.06820252  0.08679668  0.61237005    -0.06200
C182        C  0.42200442  0.09631280  0.52425497     0.93000
O183        O  0.34996303  0.46369944  0.46273054    -0.82400
C184        C  0.32963568  0.42359899  0.47284504     0.93100
O185        O  0.11907785  0.16090918  0.46867845    -0.82400
Mg186      Mg  0.08712740  0.49233328  0.53384263     1.58200
O187        O  0.40407770  0.05841083  0.50550711    -0.80700
O188        O  0.04087514  0.38488397  0.46524007    -0.82400
C189        C  0.17674140  0.34179202  0.58247912     0.01700
C190        C  0.17566671  0.37535568  0.61020724     0.04500
C191        C  0.16736082  0.37103717  0.66336632    -0.11600
C192        C  0.16937855  0.33840682  0.69125319     0.23800
C193        C  0.18043728  0.31079987  0.66545502    -0.12100
C194        C  0.18592652  0.31364047  0.61143448     0.05200
C195        C  0.16724708  0.33837281  0.74845867     0.27600
C196        C  0.20271802  0.36994231  0.77642754    -0.12800
C197        C  0.19930638  0.37397914  0.82973674     0.05700
C198        C  0.16422580  0.34083823  0.85742575    -0.08800
C199        C  0.12633459  0.31355731  0.82861195     0.06500
C200        C  0.12836201  0.31148518  0.77437077    -0.13100
Br201      Br  0.18932513  0.27012544  0.70463013    -0.05200
Br202      Br  0.19896396  0.43253004  0.58088334     0.00400
Br203      Br  0.23428069  0.43098462  0.85912421     0.00900
Br204      Br  0.07764892  0.27316817  0.73504308    -0.03500
Br205      Br  0.21564800  0.28683055  0.58051237     0.01000
Br206      Br  0.15435933  0.41076247  0.69819884    -0.02800
Br207      Br  0.25574498  0.40900728  0.74149523    -0.03700
Br208      Br  0.07005439  0.28650792  0.86038789     0.00300
C209        C  0.16390227  0.34145299  0.08248845     0.01700
C210        C  0.19835022  0.37529923  0.11031674     0.04500
C211        C  0.20242502  0.37103429  0.16349923    -0.11600
C212        C  0.16808527  0.33782697  0.19119820     0.23800
C213        C  0.12955181  0.30969845  0.16526194    -0.12100
C214        C  0.12672036  0.31278153  0.11131384     0.05200
C215        C  0.17010855  0.33778278  0.24839518     0.27600
C216        C  0.18275530  0.31149311  0.27451660    -0.12800
C217        C  0.18658958  0.31352123  0.32881447     0.05700
C218        C  0.17548886  0.34046391  0.35737061    -0.08800
C219        C  0.17307212  0.37321716  0.32943834     0.06500
C220        C  0.16541048  0.36885034  0.27618705    -0.13100
Br221      Br  0.08037669  0.26794524  0.20413504    -0.05200
Br222      Br  0.23210244  0.43244198  0.08082111     0.00400
Br223      Br  0.21585485  0.28671574  0.36112656     0.00900
Br224      Br  0.15013332  0.40687084  0.24111901    -0.03500
Br225      Br  0.07001063  0.28581949  0.08048550     0.01000
Br226      Br  0.25481623  0.41159227  0.19864574    -0.02800
Br227      Br  0.19639700  0.27411407  0.23540134    -0.03700
Br228      Br  0.19535830  0.43045868  0.35812196     0.00300
C229        C  0.33998686  0.16650092  0.64210620     0.01700
C230        C  0.37356834  0.20051572  0.67075798     0.04500
C231        C  0.37009692  0.20216545  0.72453380    -0.11600
C232        C  0.33755152  0.16636713  0.75116607     0.23800
C233        C  0.30992529  0.12845240  0.72376418    -0.12100
C234        C  0.31239973  0.12779296  0.66954484     0.05200
C235        C  0.33584858  0.16731839  0.80834108     0.27600
C236        C  0.36742484  0.16481903  0.83771715    -0.12800
C237        C  0.37023899  0.17269833  0.89092295     0.05700
C238        C  0.33572203  0.17276747  0.91727647    -0.08800
C239        C  0.30803285  0.18173691  0.88710449     0.06500
C240        C  0.30709182  0.17733973  0.83295148    -0.13100
Br241      Br  0.26966375  0.07712951  0.76091043    -0.05200
Br242      Br  0.42993550  0.23658365  0.64096745     0.00400
Br243      Br  0.42685674  0.19775670  0.92185128     0.00900
Br244      Br  0.26739107  0.18631465  0.79194976    -0.03500
Br245      Br  0.28521171  0.07194272  0.63587392     0.01000
Br246      Br  0.41082460  0.25337147  0.76177449    -0.02800
Br247      Br  0.40775657  0.15168703  0.80511769    -0.03700
Br248      Br  0.27950269  0.21026201  0.91665537     0.00300
C249        C  0.33638631  0.17154018  0.41721368     0.01700
C250        C  0.30215486  0.17220103  0.39072059     0.04500
C251        C  0.29683073  0.16417151  0.33752738    -0.11600
C252        C  0.33029464  0.16526626  0.30833067     0.23800
C253        C  0.36878891  0.17420454  0.33304575    -0.12100
C254        C  0.37262894  0.17928270  0.38709385     0.05200
C255        C  0.32781345  0.16476284  0.25114674     0.27600
C256        C  0.31631433  0.12678395  0.22327499    -0.12800
C257        C  0.31363623  0.12679524  0.16900098     0.05700
C258        C  0.32585974  0.16600795  0.14210046    -0.08800
C259        C  0.32731744  0.20020583  0.17122681     0.06500
C260        C  0.33257535  0.20133933  0.22494054    -0.13100
Br261      Br  0.41670401  0.18098353  0.29230386    -0.05200
Br262      Br  0.27116679  0.19773450  0.42167973     0.00400
Br263      Br  0.28463178  0.07139386  0.13430284     0.00900
Br264      Br  0.34527238  0.25296116  0.26266564    -0.03500
Br265      Br  0.42998123  0.20770900  0.41621686     0.01000
Br266      Br  0.24398450  0.15299401  0.30456173    -0.02800
Br267      Br  0.30308473  0.07456181  0.25982140    -0.03700
Br268      Br  0.30724714  0.23677787  0.14248234     0.00300
C269        C  0.33065426  0.66884002  0.08299186     0.30400
C270        C  0.33258825  0.66941244  0.97664712     0.30400
C271        C  0.35112429  0.64418170  0.05758030    -0.05800
C272        C  0.28696231  0.65011407  0.05532837    -0.06600
C273        C  0.35779679  0.71368208  0.05706043    -0.06500
C274        C  0.35026566  0.64314964  0.00367771    -0.05800
C275        C  0.28789832  0.64904611  0.00164670    -0.06600
C276        C  0.35717458  0.71332423  0.00326252    -0.06500
C277        C  0.36661880  0.61750149  0.98843749    -0.31900
N278        N  0.38071683  0.60600962  0.03051288     0.14600
C279        C  0.37202177  0.62229523  0.07309569    -0.31900
H280        H  0.38028843  0.61852196  0.11216453     0.16600
C281        C  0.24585333  0.62691739  0.98521525    -0.30900
N282        N  0.21986073  0.61778102  0.02668723     0.13300
C283        C  0.24432808  0.63149349  0.06995451    -0.30900
C284        C  0.38069373  0.75509698  0.98642125    -0.31200
N285        N  0.39705686  0.78109639  0.02799946     0.13800
H286        H  0.38556586  0.76596010  0.94674291     0.16500
C287        C  0.38485834  0.75647613  0.07130709    -0.31200
H288        H  0.39406841  0.76905389  0.11003182     0.16500
H289        H  0.23203041  0.62730882  0.10885683     0.16500
H290        H  0.36922122  0.60850234  0.94937632     0.16500
H291        H  0.23471363  0.61857701  0.94581558     0.16500
C292        C  0.33632931  0.66864475  0.47660987     0.30400
C293        C  0.33782123  0.66877685  0.58295071     0.30400
C294        C  0.36043490  0.64824937  0.50209007    -0.05800
C295        C  0.35595027  0.71276324  0.50278683    -0.06600
C296        C  0.29235785  0.64268959  0.50359753    -0.06500
C297        C  0.36256478  0.64969223  0.55576181    -0.05800
C298        C  0.35570015  0.71344326  0.55656395    -0.07000
C299        C  0.29258079  0.64410186  0.55748339    -0.06500
C300        C  0.38643952  0.63100689  0.57078228    -0.31900
N301        N  0.39690751  0.61686746  0.52773980     0.14600
C302        C  0.37995194  0.62572879  0.48610037    -0.31900
H303        H  0.38249489  0.61698733  0.44683565     0.16600
C304        C  0.37135507  0.75627451  0.57043656    -0.30900
N305        N  0.38366520  0.78066347  0.52693438     0.13300
C306        C  0.37413455  0.75444537  0.48559064    -0.30900
C307        C  0.24974086  0.62259407  0.57284980    -0.31200
N308        N  0.22469669  0.60606731  0.53024870     0.13800
H309        H  0.23770075  0.61919811  0.61182148     0.16500
C310        C  0.25028058  0.61713758  0.48827525    -0.31200
H311        H  0.23864013  0.60796854  0.44920245     0.16500
H312        H  0.38000066  0.76507705  0.44582477     0.16500
H313        H  0.39469673  0.62713268  0.60976800     0.16500
H314        H  0.37472175  0.76901395  0.60906061     0.16500
C315        C  0.16511326  0.83929158  0.02312674     0.30400
C316        C  0.16534885  0.83891714  0.91673525     0.30400
C317        C  0.14688743  0.86442107  0.99631757    -0.05800
C318        C  0.20939708  0.85671479  0.99732139    -0.06600
C319        C  0.14048771  0.79456302  0.99722232    -0.06500
C320        C  0.14716670  0.86475292  0.94281358    -0.05800
C321        C  0.20993833  0.85647762  0.94336414    -0.06600
C322        C  0.14000679  0.79394067  0.94319012    -0.06500
C323        C  0.12807755  0.88811292  0.92721224    -0.31900
N324        N  0.11596031  0.90082991  0.97014473     0.14600
C325        C  0.12720790  0.88658367  0.01235700    -0.31900
H326        H  0.12094740  0.89159110  0.05180371     0.16600
C327        C  0.25230143  0.87072852  0.92912284    -0.30900
N328        N  0.27674514  0.88124587  0.97242591     0.13300
C329        C  0.25078430  0.87102178  0.01391622    -0.30900
C330        C  0.11874522  0.75069173  0.92872967    -0.31200
N331        N  0.10635485  0.72610031  0.97208208     0.13800
H332        H  0.11332252  0.73801120  0.88985682     0.16500
C333        C  0.12099134  0.75239900  0.01367366    -0.31200
H334        H  0.11742533  0.74135088  0.05316898     0.16500
H335        H  0.26175553  0.87437126  0.05339807     0.16500
H336        H  0.12221513  0.89417894  0.88798490     0.16500
H337        H  0.26475028  0.87423605  0.89038209     0.16500
C338        C  0.17246778  0.83872332  0.41667248     0.30400
C339        C  0.17323350  0.83947997  0.52308591     0.30400
C340        C  0.14548968  0.85634419  0.44302378    -0.05800
C341        C  0.15283873  0.79385638  0.44336362    -0.06600
C342        C  0.21655392  0.86468156  0.44277070    -0.06500
C343        C  0.14633472  0.85677149  0.49699130    -0.05800
C344        C  0.15304123  0.79465981  0.49739671    -0.06600
C345        C  0.21660200  0.86457102  0.49628134    -0.06500
C346        C  0.11928850  0.87112766  0.51329027    -0.31900
N347        N  0.10359752  0.88127705  0.47162003     0.14600
C348        C  0.11740349  0.87055339  0.42850034    -0.31900
H349        H  0.10838840  0.87389201  0.38968472     0.16600
C350        C  0.13054537  0.75253233  0.51403818    -0.30900
N351        N  0.11889508  0.72610917  0.47255976     0.13300
C352        C  0.13100246  0.75056885  0.42909588    -0.30900
C353        C  0.25853844  0.88674019  0.51230235    -0.31200
N354        N  0.28395454  0.90069391  0.47006863     0.13800
H355        H  0.26992821  0.89188690  0.55175904     0.16500
C356        C  0.25900621  0.88786232  0.42714256    -0.31200
H357        H  0.27086131  0.89369514  0.38792104     0.16500
H358        H  0.12380653  0.73777049  0.39026549     0.16500
H359        H  0.11163577  0.87454422  0.55267203     0.16500
H360        H  0.12322641  0.74160725  0.55358406     0.16500
O361        O  0.05494128  0.98649292  0.03405452    -0.88000
C362        C  0.06461772  0.57020492  0.92128841     0.88000
Mg363      Mg  0.00875098  0.91916601  0.03374739     1.58100
O364        O  0.01673627  0.57721512  0.03630750    -0.87700
O365        O  0.07392104  0.54132934  0.08578340    -0.75100
C366        C  0.32268833  0.90444366  0.97599299     0.93100
O367        O  0.03527483  0.96734867  0.91221184    -0.74900
O368        O  0.34305856  0.88474293  0.96664306    -0.82400
Mg369      Mg  0.09155744  0.51307234  0.96365105     1.58000
C370        C  0.40343692  0.58285847  0.02734203     0.93000
O371        O  0.15414571  0.55907722  0.00451051    -0.80600
H372        H  0.01871671  0.58741551  0.11227965    -0.06000
C373        C  0.43254196  0.00351742  0.92230997     0.87900
O374        O  0.46291148  0.92849500  0.08629533    -0.75100
O375        O  0.07176998  0.56011105  0.96415424    -0.87900
O376        O  0.44241684  0.60318464  0.01172896    -0.80700
C377        C  0.08154016  0.68002579  0.97593734     0.93100
C378        C  0.17414551  0.59704655  0.02308666     0.93000
Mg379      Mg  0.40464119  0.99246152  0.03464531     1.58000
O380        O  0.34136812  0.94318910  0.99315051    -0.80600
O381        O  0.46114361  0.53924381  0.08626316    -0.74900
O382        O  0.10036476  0.66026646  0.99237999    -0.80700
O383        O  0.11316361  0.96391550  0.96249153    -0.82400
O384        O  0.40057486  0.84564559  0.00675543    -0.80800
C385        C  0.49976884  0.56923206  0.07935961     0.87400
O386        O  0.42528073  0.94581290  0.03571239    -0.87900
O387        O  0.44226275  0.52037217  0.96545873    -0.88000
O388        O  0.42355661  0.96481690  0.91483515    -0.75100
Mg389      Mg  0.08411451  0.59746779  0.03430044     1.58000
O390        O  0.04093580  0.66078823  0.96839215    -0.82400
H391        H  0.06444311  0.98322366  0.10946457    -0.06200
O392        O  0.48143549  0.92965364  0.96430995    -0.87700
H393        H  0.47748899  0.91818516  0.88854084    -0.06000
H394        H  0.41431133  0.93702763  0.11147402    -0.06200
C395        C  0.99723861  0.93697324  0.92068034     0.87400
C396        C  0.06498240  0.50282833  0.07741846     0.88000
C397        C  0.43280199  0.93659645  0.07888402     0.88000
H398        H  0.43291320  0.52262364  0.88979288    -0.06100
O399        O  0.03499434  0.57910207  0.91435703    -0.75200
Mg400      Mg  0.41445574  0.90830365  0.96591798     1.58000
H401        H  0.08301465  0.56990478  0.88852375    -0.06200
C402        C  0.09336034  0.92387070  0.97299631     0.93000
O403        O  0.46029666  0.84754324  0.03432963    -0.82400
C404        C  0.42022239  0.82708464  0.02458095     0.93100
O405        O  0.15539548  0.61826742  0.03350715    -0.82400
Mg406      Mg  0.48964791  0.58856691  0.96763290     1.58200
O407        O  0.05554744  0.90442145  0.99172732    -0.80700
O408        O  0.38282339  0.54211776  0.03423423    -0.82400
O409        O  0.48752599  0.56011484  0.46444342    -0.88000
C410        C  0.06889274  0.56881331  0.57927439     0.88000
Mg411      Mg  0.42069461  0.51289670  0.46390818     1.58100
O412        O  0.07728480  0.52050688  0.46491619    -0.87700
O413        O  0.04315160  0.57937095  0.41444234    -0.75100
C414        C  0.40620125  0.82664940  0.52321515     0.93100
O415        O  0.46679427  0.54059897  0.58593265    -0.74900
O416        O  0.38647624  0.84689684  0.53322299    -0.82400
Mg417      Mg  0.01267148  0.59712071  0.53483065     1.58000
C418        C  0.08096027  0.90453501  0.47488658     0.93000
O419        O  0.05920241  0.66017429  0.49327449    -0.80600
H420        H  0.08887000  0.52315290  0.38926358    -0.06000
C421        C  0.50317760  0.93599147  0.57785773     0.87900
O422        O  0.43118980  0.96759098  0.41186452    -0.75100
O423        O  0.05984828  0.57702377  0.53633930    -0.87900
O424        O  0.10109867  0.94324551  0.49217024    -0.80700
C425        C  0.17878098  0.58290357  0.52698656     0.93100
C426        C  0.09771670  0.68004447  0.47655929     0.93000
Mg427      Mg  0.49302666  0.90832310  0.46466491     1.58000
O428        O  0.44432167  0.84544112  0.50512181    -0.80600
O429        O  0.04043405  0.96514833  0.41392820    -0.74900
O430        O  0.16011587  0.60326990  0.51161518    -0.80700
O431        O  0.46206918  0.61771890  0.53454685    -0.82400
O432        O  0.34796056  0.90395595  0.49110853    -0.80800
C433        C  0.07014643  0.00386250  0.42164887     0.87400
O434        O  0.44730847  0.92950115  0.46340148    -0.87900
O435        O  0.01980520  0.94554582  0.53469755    -0.88000
O436        O  0.46494279  0.92773168  0.58543827    -0.75100
Mg437      Mg  0.09813350  0.58870286  0.46756505     1.58000
O438        O  0.15862865  0.54212759  0.53355778    -0.82400
H439        H  0.48579657  0.57025746  0.38891490    -0.06200
O440        O  0.43093005  0.98594416  0.53386965    -0.87700
H441        H  0.41829254  0.98225667  0.60929426    -0.06000
H442        H  0.43972384  0.91864474  0.38751417    -0.06200
C443        C  0.43727867  0.50206047  0.57735595     0.87400
C444        C  0.00463790  0.57043006  0.42156579     0.88000
C445        C  0.43880806  0.93716251  0.41990178     0.88000
H446        H  0.02223619  0.93626812  0.61032834    -0.06100
O447        O  0.07748460  0.53880068  0.58584866    -0.75200
Mg448      Mg  0.40965821  0.91858265  0.53300577     1.58000
H449        H  0.06820256  0.58679674  0.61237005    -0.06200
C450        C  0.42200444  0.59631283  0.52425497     0.93000
O451        O  0.34996303  0.96369948  0.46273054    -0.82400
C452        C  0.32963568  0.92359904  0.47284505     0.93100
O453        O  0.11907785  0.66090918  0.46867845    -0.82400
Mg454      Mg  0.08712740  0.99233326  0.53384263     1.58200
O455        O  0.40407773  0.55841086  0.50550711    -0.80700
O456        O  0.04087504  0.88488380  0.46524013    -0.82400
C457        C  0.17674139  0.84179200  0.58247912     0.01700
C458        C  0.17566663  0.87535565  0.61020722     0.04500
C459        C  0.16736072  0.87103712  0.66336630    -0.11600
C460        C  0.16937854  0.83840682  0.69125319     0.23800
C461        C  0.18043732  0.81079990  0.66545503    -0.12100
C462        C  0.18592655  0.81364049  0.61143449     0.05200
C463        C  0.16724707  0.83837284  0.74845866     0.27600
C464        C  0.20271803  0.86994236  0.77642754    -0.12800
C465        C  0.19930639  0.87397920  0.82973674     0.05700
C466        C  0.16422581  0.84083827  0.85742574    -0.08800
C467        C  0.12633459  0.81355736  0.82861193     0.06500
C468        C  0.12836199  0.81148520  0.77437076    -0.13100
Br469      Br  0.18932516  0.77012549  0.70463014    -0.05200
Br470      Br  0.19896396  0.93253004  0.58088336     0.00400
Br471      Br  0.23428072  0.93098468  0.85912421     0.00900
Br472      Br  0.07764886  0.77316797  0.73504312    -0.03500
Br473      Br  0.21564803  0.78683060  0.58051237     0.01000
Br474      Br  0.15435935  0.91076251  0.69819883    -0.02800
Br475      Br  0.25574500  0.90900734  0.74149522    -0.03700
Br476      Br  0.07005442  0.78650798  0.86038790     0.00300
C477        C  0.16390226  0.84145301  0.08248845     0.01700
C478        C  0.19835021  0.87529927  0.11031674     0.04500
C479        C  0.20242503  0.87103431  0.16349923    -0.11600
C480        C  0.16808529  0.83782696  0.19119819     0.23800
C481        C  0.12955182  0.80969847  0.16526194    -0.12100
C482        C  0.12672036  0.81278157  0.11131384     0.05200
C483        C  0.17010854  0.83778278  0.24839517     0.27600
C484        C  0.18275532  0.81149311  0.27451658    -0.12800
C485        C  0.18658962  0.81352127  0.32881445     0.05700
C486        C  0.17548887  0.84046393  0.35737060    -0.08800
C487        C  0.17307211  0.87321718  0.32943831     0.06500
C488        C  0.16541038  0.86885031  0.27618703    -0.13100
Br489      Br  0.08037670  0.76794529  0.20413505    -0.05200
Br490      Br  0.23210246  0.93244203  0.08082112     0.00400
Br491      Br  0.21585488  0.78671580  0.36112656     0.00900
Br492      Br  0.15013310  0.90687081  0.24111904    -0.03500
Br493      Br  0.07001064  0.78581955  0.08048550     0.01000
Br494      Br  0.25481623  0.91159231  0.19864574    -0.02800
Br495      Br  0.19639686  0.77411386  0.23540138    -0.03700
Br496      Br  0.19535832  0.93045872  0.35812194     0.00300
C497        C  0.33998680  0.66650087  0.64210623     0.01700
C498        C  0.37356830  0.70051561  0.67075805     0.04500
C499        C  0.37009690  0.70216535  0.72453388    -0.11600
C500        C  0.33755148  0.66636707  0.75116610     0.23800
C501        C  0.30992530  0.62845236  0.72376420    -0.12100
C502        C  0.31239969  0.62779292  0.66954486     0.05200
C503        C  0.33584855  0.66731833  0.80834109     0.27600
C504        C  0.36742477  0.66481889  0.83771716    -0.12800
C505        C  0.37023901  0.67269832  0.89092294     0.05700
C506        C  0.33572204  0.67276741  0.91727646    -0.08800
C507        C  0.30803279  0.68173672  0.88710448     0.06500
C508        C  0.30709183  0.67733972  0.83295147    -0.13100
Br509      Br  0.26966397  0.57712948  0.76091047    -0.05200
Br510      Br  0.42993541  0.73658343  0.64096747     0.00400
Br511      Br  0.42685676  0.69775676  0.92185126     0.00900
Br512      Br  0.26739110  0.68631472  0.79194977    -0.03500
Br513      Br  0.28521172  0.57194274  0.63587391     0.01000
Br514      Br  0.41082450  0.75337124  0.76177480    -0.02800
Br515      Br  0.40775642  0.65168678  0.80511771    -0.03700
Br516      Br  0.27950276  0.71026181  0.91665541     0.00300
C517        C  0.33638634  0.67154025  0.41721368     0.01700
C518        C  0.30215488  0.67220109  0.39072060     0.04500
C519        C  0.29683075  0.66417158  0.33752739    -0.11600
C520        C  0.33029466  0.66526633  0.30833067     0.23800
C521        C  0.36878891  0.67420458  0.33304575    -0.12100
C522        C  0.37262896  0.67928276  0.38709385     0.05200
C523        C  0.32781348  0.66476288  0.25114673     0.27600
C524        C  0.31631432  0.62678396  0.22327499    -0.12800
C525        C  0.31363620  0.62679517  0.16900096     0.05700
C526        C  0.32585977  0.66600791  0.14210045    -0.08800
C527        C  0.32731744  0.70020577  0.17122681     0.06500
C528        C  0.33257536  0.70133934  0.22494053    -0.13100
Br529      Br  0.41670390  0.68098329  0.29230386    -0.05200
Br530      Br  0.27116682  0.69773456  0.42167973     0.00400
Br531      Br  0.28463171  0.57139371  0.13430286     0.00900
Br532      Br  0.34527241  0.75296121  0.26266562    -0.03500
Br533      Br  0.42998125  0.70770905  0.41621686     0.01000
Br534      Br  0.24398452  0.65299407  0.30456173    -0.02800
Br535      Br  0.30308448  0.57456184  0.25982144    -0.03700
Br536      Br  0.30724739  0.73677796  0.14248231     0.00300
C537        C  0.83065422  0.16884005  0.08299189     0.30400
C538        C  0.83258822  0.16941248  0.97664713     0.30400
C539        C  0.85112427  0.14418174  0.05758033    -0.05800
C540        C  0.78696231  0.15011412  0.05532839    -0.06600
C541        C  0.85779671  0.21368209  0.05706044    -0.06500
C542        C  0.85026561  0.14314966  0.00367774    -0.05800
C543        C  0.78789834  0.14904624  0.00164672    -0.06600
C544        C  0.85717455  0.21332424  0.00326252    -0.06500
C545        C  0.86661869  0.11750145  0.98843749    -0.31900
N546        N  0.88071672  0.10600957  0.03051290     0.14600
C547        C  0.87202176  0.12229527  0.07309567    -0.31900
H548        H  0.88028846  0.11852200  0.11216456     0.16600
C549        C  0.74585340  0.12691752  0.98521523    -0.30900
N550        N  0.71986078  0.11778100  0.02668720     0.13300
C551        C  0.74432809  0.13149343  0.06995453    -0.30900
C552        C  0.88069370  0.25509697  0.98642125    -0.31200
N553        N  0.89705686  0.28109637  0.02799946     0.13800
H554        H  0.88556579  0.26596009  0.94674290     0.16500
C555        C  0.88485822  0.25647612  0.07130711    -0.31200
H556        H  0.89406823  0.26905388  0.11003184     0.16500
H557        H  0.73203041  0.12730870  0.10885677     0.16500
H558        H  0.86922103  0.10850227  0.94937636     0.16500
H559        H  0.73471375  0.11857723  0.94581553     0.16500
C560        C  0.83632928  0.16864474  0.47660988     0.30400
C561        C  0.83782124  0.16877687  0.58295071     0.30400
C562        C  0.86043490  0.14824940  0.50209008    -0.05800
C563        C  0.85595021  0.21276324  0.50278682    -0.06600
C564        C  0.79235783  0.14268954  0.50359755    -0.06500
C565        C  0.86256485  0.14969231  0.55576180    -0.05800
C566        C  0.85570008  0.21344328  0.55656393    -0.07000
C567        C  0.79258077  0.14410183  0.55748341    -0.06500
C568        C  0.88643965  0.13100701  0.57078226    -0.31900
N569        N  0.89690761  0.11686756  0.52773982     0.14600
C570        C  0.87995199  0.12572883  0.48610036    -0.31900
H571        H  0.88249492  0.11698736  0.44683574     0.16600
C572        C  0.87135493  0.25627453  0.57043653    -0.30900
N573        N  0.88366512  0.28066349  0.52693435     0.13300
C574        C  0.87413446  0.25444537  0.48559060    -0.30900
C575        C  0.74974083  0.12259410  0.57284978    -0.31200
N576        N  0.72469662  0.10606734  0.53024870     0.13800
H577        H  0.73770070  0.11919819  0.61182151     0.16500
C578        C  0.75028056  0.11713756  0.48827527    -0.31200
H579        H  0.73864011  0.10796845  0.44920245     0.16500
H580        H  0.88000059  0.26507701  0.44582478     0.16500
H581        H  0.89469689  0.12713282  0.60976799     0.16500
H582        H  0.87472164  0.26901401  0.60906056     0.16500
C583        C  0.66511333  0.33929158  0.02312673     0.30400
C584        C  0.66534886  0.33891712  0.91673525     0.30400
C585        C  0.64688750  0.36442108  0.99631756    -0.05800
C586        C  0.70939715  0.35671477  0.99732139    -0.06600
C587        C  0.64048781  0.29456304  0.99722231    -0.06500
C588        C  0.64716671  0.36475289  0.94281359    -0.05800
C589        C  0.70993837  0.35647761  0.94336414    -0.06600
C590        C  0.64000683  0.29394068  0.94319012    -0.06500
C591        C  0.62807753  0.38811287  0.92721226    -0.31900
N592        N  0.61596032  0.40082990  0.97014474     0.14600
C593        C  0.62720793  0.38658364  0.01235701    -0.31900
H594        H  0.62094745  0.39159103  0.05180371     0.16600
C595        C  0.75230147  0.37072850  0.92912281    -0.30900
N596        N  0.77674518  0.38124583  0.97242589     0.13300
C597        C  0.75078437  0.37102173  0.01391622    -0.30900
C598        C  0.61874516  0.25069174  0.92872966    -0.31200
N599        N  0.60635482  0.22610032  0.97208207     0.13800
H600        H  0.61332235  0.23801123  0.88985688     0.16500
C601        C  0.62099145  0.25239901  0.01367365    -0.31200
H602        H  0.61742548  0.24135092  0.05316892     0.16500
H603        H  0.76175561  0.37437124  0.05339806     0.16500
H604        H  0.62221511  0.39417887  0.88798489     0.16500
H605        H  0.76475029  0.37423607  0.89038210     0.16500
C606        C  0.67246776  0.33872334  0.41667248     0.30400
C607        C  0.67323355  0.33948002  0.52308591     0.30400
C608        C  0.64548967  0.35634420  0.44302377    -0.05800
C609        C  0.65283870  0.29385641  0.44336361    -0.06600
C610        C  0.71655393  0.36468160  0.44277069    -0.06500
C611        C  0.64633478  0.35677156  0.49699129    -0.05800
C612        C  0.65304126  0.29465986  0.49739670    -0.06600
C613        C  0.71660203  0.36457105  0.49628133    -0.06500
C614        C  0.61928858  0.37112774  0.51329029    -0.31900
N615        N  0.60359761  0.38127715  0.47162005     0.14600
C616        C  0.61740345  0.37055337  0.42850035    -0.31900
H617        H  0.60838829  0.37389192  0.38968474     0.16600
C618        C  0.63054541  0.25253237  0.51403819    -0.30900
N619        N  0.61889503  0.22610920  0.47255977     0.13300
C620        C  0.63100236  0.25056886  0.42909591    -0.30900
C621        C  0.75853847  0.38674015  0.51230234    -0.31200
N622        N  0.78395456  0.40069388  0.47006861     0.13800
H623        H  0.76992825  0.39188679  0.55175902     0.16500
C624        C  0.75900620  0.38786230  0.42714257    -0.31200
H625        H  0.77086130  0.39369505  0.38792099     0.16500
H626        H  0.62380637  0.23777045  0.39026548     0.16500
H627        H  0.61163583  0.37454421  0.55267202     0.16500
H628        H  0.62322656  0.24160730  0.55358406     0.16500
O629        O  0.55494118  0.48649289  0.03405447    -0.88000
C630        C  0.56461770  0.07020493  0.92128837     0.88000
Mg631      Mg  0.50875094  0.41916597  0.03374740     1.58100
O632        O  0.51673616  0.07721506  0.03630750    -0.87700
O633        O  0.57392114  0.04132944  0.08578339    -0.75100
C634        C  0.82268838  0.40444362  0.97599298     0.93100
O635        O  0.53527485  0.46734885  0.91221181    -0.74900
O636        O  0.84305859  0.38474289  0.96664306    -0.82400
Mg637      Mg  0.59155743  0.01307235  0.96365105     1.58000
C638        C  0.90343684  0.08285844  0.02734201     0.93000
O639        O  0.65414575  0.05907721  0.00451055    -0.80600
H640        H  0.51871655  0.08741545  0.11227965    -0.06000
C641        C  0.93254185  0.50351738  0.92230993     0.87900
O642        O  0.96291143  0.42849490  0.08629535    -0.75100
O643        O  0.57177012  0.06011118  0.96415419    -0.87900
O644        O  0.94241675  0.10318463  0.01172891    -0.80700
C645        C  0.58154003  0.18002577  0.97593727     0.93100
C646        C  0.67414557  0.09704657  0.02308663     0.93000
Mg647      Mg  0.90464128  0.49246158  0.03464532     1.58000
O648        O  0.84136818  0.44318906  0.99315054    -0.80600
O649        O  0.96114363  0.03924369  0.08626320    -0.74900
O650        O  0.60036454  0.16026640  0.99238005    -0.80700
O651        O  0.61316362  0.46391550  0.96249145    -0.82400
O652        O  0.90057494  0.34564559  0.00675541    -0.80800
C653        C  0.99976884  0.06923198  0.07935961     0.87400
O654        O  0.92528081  0.44581296  0.03571239    -0.87900
O655        O  0.94226260  0.02037218  0.96545874    -0.88000
O656        O  0.92355660  0.46481687  0.91483519    -0.75100
Mg657      Mg  0.58411448  0.09746782  0.03430044     1.58000
O658        O  0.54093569  0.16078825  0.96839188    -0.82400
H659        H  0.56444322  0.48322357  0.10946440    -0.06200
O660        O  0.98143548  0.42965368  0.96430993    -0.87700
H661        H  0.97748901  0.41818524  0.88854071    -0.06000
H662        H  0.91431127  0.43702755  0.11147396    -0.06200
C663        C  0.49723872  0.43697324  0.92068034     0.87400
C664        C  0.56498235  0.00282840  0.07741845     0.88000
C665        C  0.93280197  0.43659641  0.07888401     0.88000
H666        H  0.93291321  0.02262375  0.88979277    -0.06100
O667        O  0.53499424  0.07910197  0.91435706    -0.75200
Mg668      Mg  0.91445575  0.40830367  0.96591800     1.58000
H669        H  0.58301454  0.06990473  0.88852361    -0.06200
C670        C  0.59336036  0.42387071  0.97299634     0.93000
O671        O  0.96029672  0.34754317  0.03432962    -0.82400
C672        C  0.92022244  0.32708461  0.02458094     0.93100
O673        O  0.65539557  0.11826748  0.03350709    -0.82400
Mg674      Mg  0.98964782  0.08856687  0.96763283     1.58200
O675        O  0.55554747  0.40442148  0.99172744    -0.80700
O676        O  0.88282334  0.04211771  0.03423427    -0.82400
O677        O  0.98752600  0.06011479  0.46444341    -0.88000
C678        C  0.56889272  0.06881326  0.57927439     0.88000
Mg679      Mg  0.92069459  0.01289667  0.46390817     1.58100
O680        O  0.57728483  0.02050690  0.46491623    -0.87700
O681        O  0.54315152  0.07937090  0.41444232    -0.75100
C682        C  0.90620128  0.32664941  0.52321513     0.93100
O683        O  0.96679421  0.04059895  0.58593267    -0.74900
O684        O  0.88647631  0.34689690  0.53322298    -0.82400
Mg685      Mg  0.51267137  0.09712067  0.53483066     1.58000
C686        C  0.58096040  0.40453516  0.47488661     0.93000
O687        O  0.55920235  0.16017427  0.49327446    -0.80600
H688        H  0.58886967  0.02315280  0.38926354    -0.06000
C689        C  0.00317759  0.43599144  0.57785768     0.87900
O690        O  0.93118992  0.46759112  0.41186455    -0.75100
O691        O  0.55984815  0.07702366  0.53633934    -0.87900
O692        O  0.60109882  0.44324564  0.49217032    -0.80700
C693        C  0.67878091  0.08290359  0.52698654     0.93100
C694        C  0.59771665  0.18004447  0.47655933     0.93000
Mg695      Mg  0.99302672  0.40832317  0.46466483     1.58000
O696        O  0.94432173  0.34544111  0.50512181    -0.80600
O697        O  0.54043398  0.46514843  0.41392802    -0.74900
O698        O  0.66011574  0.10326988  0.51161519    -0.80700
O699        O  0.96206918  0.11771880  0.53454681    -0.82400
O700        O  0.84796054  0.40395587  0.49110850    -0.80800
C701        C  0.57014644  0.50386253  0.42164878     0.87400
O702        O  0.94730843  0.42950113  0.46340145    -0.87900
O703        O  0.51980516  0.44554586  0.53469744    -0.88000
O704        O  0.96494274  0.42773161  0.58543821    -0.75100
Mg705      Mg  0.59813340  0.08870283  0.46756508     1.58000
O706        O  0.65862861  0.04212761  0.53355777    -0.82400
H707        H  0.98579665  0.07025746  0.38891488    -0.06200
O708        O  0.93093008  0.48594417  0.53386964    -0.87700
H709        H  0.91829268  0.48225674  0.60929426    -0.06000
H710        H  0.93972373  0.41864475  0.38751413    -0.06200
C711        C  0.93727867  0.00206044  0.57735593     0.87400
C712        C  0.50463780  0.07042998  0.42156578     0.88000
C713        C  0.93880806  0.43716257  0.41990178     0.88000
H714        H  0.52223611  0.43626804  0.61032812    -0.06100
O715        O  0.57748466  0.03880069  0.58584861    -0.75200
Mg716      Mg  0.90965819  0.41858262  0.53300577     1.58000
H717        H  0.56820265  0.08679674  0.61237006    -0.06200
C718        C  0.92200443  0.09631280  0.52425496     0.93000
O719        O  0.84996306  0.46369943  0.46273054    -0.82400
C720        C  0.82963569  0.42359898  0.47284502     0.93100
O721        O  0.61907781  0.16090920  0.46867849    -0.82400
Mg722      Mg  0.58712739  0.49233327  0.53384262     1.58200
O723        O  0.90407764  0.05841083  0.50550713    -0.80700
O724        O  0.54087518  0.38488400  0.46524008    -0.82400
C725        C  0.67674147  0.34179203  0.58247912     0.01700
C726        C  0.67566680  0.37535570  0.61020724     0.04500
C727        C  0.66736090  0.37103719  0.66336631    -0.11600
C728        C  0.66937855  0.33840680  0.69125319     0.23800
C729        C  0.68043724  0.31079981  0.66545503    -0.12100
C730        C  0.68592656  0.31364046  0.61143448     0.05200
C731        C  0.66724707  0.33837284  0.74845867     0.27600
C732        C  0.70271804  0.36994228  0.77642755    -0.12800
C733        C  0.69930637  0.37397910  0.82973675     0.05700
C734        C  0.66422575  0.34083822  0.85742576    -0.08800
C735        C  0.62633453  0.31355731  0.82861196     0.06500
C736        C  0.62836198  0.31148524  0.77437078    -0.13100
Br737      Br  0.68932520  0.27012546  0.70463013    -0.05200
Br738      Br  0.69896405  0.43253004  0.58088333     0.00400
Br739      Br  0.73428053  0.43098462  0.85912419     0.00900
Br740      Br  0.57764896  0.27316814  0.73504306    -0.03500
Br741      Br  0.71564808  0.28683056  0.58051238     0.01000
Br742      Br  0.65435942  0.41076249  0.69819884    -0.02800
Br743      Br  0.75574504  0.40900726  0.74149525    -0.03700
Br744      Br  0.57005428  0.28650794  0.86038788     0.00300
C745        C  0.66390235  0.34145297  0.08248845     0.01700
C746        C  0.69835029  0.37529923  0.11031673     0.04500
C747        C  0.70242511  0.37103429  0.16349922    -0.11600
C748        C  0.66808536  0.33782699  0.19119819     0.23800
C749        C  0.62955190  0.30969845  0.16526194    -0.12100
C750        C  0.62672045  0.31278152  0.11131384     0.05200
C751        C  0.67010859  0.33778283  0.24839516     0.27600
C752        C  0.68275521  0.31149306  0.27451660    -0.12800
C753        C  0.68658946  0.31352119  0.32881446     0.05700
C754        C  0.67548882  0.34046392  0.35737060    -0.08800
C755        C  0.67307205  0.37321716  0.32943833     0.06500
C756        C  0.66541049  0.36885038  0.27618702    -0.13100
Br757      Br  0.58037678  0.26794524  0.20413504    -0.05200
Br758      Br  0.73210229  0.43244199  0.08082112     0.00400
Br759      Br  0.71585469  0.28671572  0.36112657     0.00900
Br760      Br  0.65013316  0.40687080  0.24111902    -0.03500
Br761      Br  0.57001072  0.28581949  0.08048550     0.01000
Br762      Br  0.75481632  0.41159227  0.19864573    -0.02800
Br763      Br  0.69639707  0.27411409  0.23540136    -0.03700
Br764      Br  0.69535838  0.43045868  0.35812196     0.00300
C765        C  0.83998687  0.16650091  0.64210621     0.01700
C766        C  0.87356835  0.20051569  0.67075800     0.04500
C767        C  0.87009700  0.20216542  0.72453382    -0.11600
C768        C  0.83755157  0.16636713  0.75116607     0.23800
C769        C  0.80992527  0.12845243  0.72376417    -0.12100
C770        C  0.81239976  0.12779295  0.66954484     0.05200
C771        C  0.83584861  0.16731840  0.80834107     0.27600
C772        C  0.86742485  0.16481902  0.83771716    -0.12800
C773        C  0.87023893  0.17269832  0.89092296     0.05700
C774        C  0.83572194  0.17276739  0.91727647    -0.08800
C775        C  0.80803269  0.18173671  0.88710448     0.06500
C776        C  0.80709179  0.17733967  0.83295146    -0.13100
Br777      Br  0.76966383  0.07712950  0.76091043    -0.05200
Br778      Br  0.92993540  0.23658370  0.64096741     0.00400
Br779      Br  0.92685660  0.19775672  0.92185130     0.00900
Br780      Br  0.76739114  0.18631466  0.79194973    -0.03500
Br781      Br  0.78521180  0.07194272  0.63587392     0.01000
Br782      Br  0.91082469  0.25337146  0.76177450    -0.02800
Br783      Br  0.90775664  0.15168704  0.80511773    -0.03700
Br784      Br  0.77950274  0.21026201  0.91665536     0.00300
C785        C  0.83638626  0.17154021  0.41721369     0.01700
C786        C  0.80215478  0.17220104  0.39072061     0.04500
C787        C  0.79683070  0.16417152  0.33752739    -0.11600
C788        C  0.83029463  0.16526627  0.30833068     0.23800
C789        C  0.86878889  0.17420457  0.33304576    -0.12100
C790        C  0.87262891  0.17928275  0.38709386     0.05200
C791        C  0.82781349  0.16476286  0.25114673     0.27600
C792        C  0.81631440  0.12678397  0.22327498    -0.12800
C793        C  0.81363626  0.12679524  0.16900096     0.05700
C794        C  0.82585968  0.16600793  0.14210046    -0.08800
C795        C  0.82731736  0.20020577  0.17122683     0.06500
C796        C  0.83257538  0.20133933  0.22494054    -0.13100
Br797      Br  0.91670403  0.18098352  0.29230390    -0.05200
Br798      Br  0.77116662  0.19773448  0.42167972     0.00400
Br799      Br  0.78463162  0.07139387  0.13430284     0.00900
Br800      Br  0.84527248  0.25296117  0.26266564    -0.03500
Br801      Br  0.92998124  0.20770896  0.41621685     0.01000
Br802      Br  0.74398453  0.15299400  0.30456170    -0.02800
Br803      Br  0.80308455  0.07456179  0.25982141    -0.03700
Br804      Br  0.80724720  0.23677790  0.14248234     0.00300
C805        C  0.83065421  0.66884003  0.08299187     0.30400
C806        C  0.83258823  0.66941245  0.97664712     0.30400
C807        C  0.85112429  0.64418174  0.05758032    -0.05800
C808        C  0.78696230  0.65011407  0.05532837    -0.06600
C809        C  0.85779669  0.71368209  0.05706043    -0.06500
C810        C  0.85026567  0.64314968  0.00367772    -0.05800
C811        C  0.78789832  0.64904611  0.00164671    -0.06600
C812        C  0.85717451  0.71332424  0.00326252    -0.06500
C813        C  0.86661879  0.61750151  0.98843749    -0.31900
N814        N  0.88071673  0.60600955  0.03051290     0.14600
C815        C  0.87202173  0.62229523  0.07309569    -0.31900
H816        H  0.88028840  0.61852194  0.11216458     0.16600
C817        C  0.74585336  0.62691735  0.98521524    -0.30900
N818        N  0.71986075  0.61778100  0.02668721     0.13300
C819        C  0.74432808  0.63149349  0.06995452    -0.30900
C820        C  0.88069369  0.75509698  0.98642126    -0.31200
N821        N  0.89705688  0.78109639  0.02799946     0.13800
H822        H  0.88556580  0.76596010  0.94674291     0.16500
C823        C  0.88485822  0.75647614  0.07130710    -0.31200
H824        H  0.89406823  0.76905389  0.11003183     0.16500
H825        H  0.73203042  0.62730882  0.10885678     0.16500
H826        H  0.86922124  0.60850239  0.94937632     0.16500
H827        H  0.73471368  0.61857697  0.94581557     0.16500
C828        C  0.83632928  0.66864476  0.47660989     0.30400
C829        C  0.83782122  0.66877684  0.58295072     0.30400
C830        C  0.86043489  0.64824939  0.50209008    -0.05800
C831        C  0.85595022  0.71276324  0.50278684    -0.06600
C832        C  0.79235783  0.64268958  0.50359755    -0.06500
C833        C  0.86256481  0.64969226  0.55576182    -0.05800
C834        C  0.85570007  0.71344326  0.55656396    -0.07000
C835        C  0.79258075  0.64410184  0.55748341    -0.06500
C836        C  0.88643957  0.63100692  0.57078226    -0.31900
N837        N  0.89690758  0.61686753  0.52773980     0.14600
C838        C  0.87995193  0.62572878  0.48610037    -0.31900
H839        H  0.88249482  0.61698726  0.44683570     0.16600
C840        C  0.87135490  0.75627450  0.57043655    -0.30900
N841        N  0.88366509  0.78066347  0.52693437     0.13300
C842        C  0.87413446  0.75444537  0.48559064    -0.30900
C843        C  0.74974081  0.62259407  0.57284978    -0.31200
N844        N  0.72469663  0.60606730  0.53024869     0.13800
H845        H  0.73770068  0.61919814  0.61182150     0.16500
C846        C  0.75028056  0.61713755  0.48827525    -0.31200
H847        H  0.73864013  0.60796847  0.44920246     0.16500
H848        H  0.88000060  0.76507704  0.44582477     0.16500
H849        H  0.89469677  0.62713266  0.60976801     0.16500
H850        H  0.87472157  0.76901394  0.60906059     0.16500
C851        C  0.66511333  0.83929158  0.02312674     0.30400
C852        C  0.66534886  0.83891714  0.91673525     0.30400
C853        C  0.64688750  0.86442109  0.99631757    -0.05800
C854        C  0.70939714  0.85671478  0.99732139    -0.06600
C855        C  0.64048780  0.79456302  0.99722232    -0.06500
C856        C  0.64716672  0.86475291  0.94281359    -0.05800
C857        C  0.70993837  0.85647763  0.94336414    -0.06600
C858        C  0.64000682  0.79394067  0.94319012    -0.06500
C859        C  0.62807754  0.88811289  0.92721227    -0.31900
N860        N  0.61596037  0.90082995  0.97014474     0.14600
C861        C  0.62720798  0.88658368  0.01235702    -0.31900
H862        H  0.62094747  0.89159107  0.05180370     0.16600
C863        C  0.75230148  0.87072856  0.92912281    -0.30900
N864        N  0.77674519  0.88124589  0.97242590     0.13300
C865        C  0.75078437  0.87102179  0.01391621    -0.30900
C866        C  0.61874515  0.75069172  0.92872967    -0.31200
N867        N  0.60635483  0.72610031  0.97208208     0.13800
H868        H  0.61332233  0.73801119  0.88985681     0.16500
C869        C  0.62099143  0.75239900  0.01367366    -0.31200
H870        H  0.61742545  0.74135088  0.05316897     0.16500
H871        H  0.76175564  0.87437131  0.05339809     0.16500
H872        H  0.62221505  0.89417885  0.88798488     0.16500
H873        H  0.76475031  0.87423613  0.89038211     0.16500
C874        C  0.67246776  0.83872333  0.41667248     0.30400
C875        C  0.67323353  0.83947996  0.52308591     0.30400
C876        C  0.64548966  0.85634417  0.44302377    -0.05800
C877        C  0.65283869  0.79385638  0.44336362    -0.06600
C878        C  0.71655393  0.86468158  0.44277069    -0.06500
C879        C  0.64633476  0.85677150  0.49699129    -0.05800
C880        C  0.65304123  0.79465981  0.49739671    -0.06600
C881        C  0.71660202  0.86457100  0.49628133    -0.06500
C882        C  0.61928857  0.87112769  0.51329029    -0.31900
N883        N  0.60359755  0.88127705  0.47162006     0.14600
C884        C  0.61740345  0.87055335  0.42850035    -0.31900
H885        H  0.60838834  0.87389198  0.38968475     0.16600
C886        C  0.63054538  0.75253233  0.51403819    -0.30900
N887        N  0.61889500  0.72610917  0.47255976     0.13300
C888        C  0.63100235  0.75056885  0.42909589    -0.30900
C889        C  0.75853846  0.88674016  0.51230234    -0.31200
N890        N  0.78395457  0.90069393  0.47006862     0.13800
H891        H  0.76992824  0.89188684  0.55175903     0.16500
C892        C  0.75900620  0.88786234  0.42714257    -0.31200
H893        H  0.77086130  0.89369512  0.38792099     0.16500
H894        H  0.62380639  0.73777048  0.39026548     0.16500
H895        H  0.61163588  0.87454426  0.55267206     0.16500
H896        H  0.62322655  0.74160724  0.55358407     0.16500
O897        O  0.55494114  0.98649293  0.03405449    -0.88000
C898        C  0.56461770  0.57020494  0.92128840     0.88000
Mg899      Mg  0.50875094  0.91916600  0.03374740     1.58100
O900        O  0.51673618  0.57721513  0.03630751    -0.87700
O901        O  0.57392111  0.54132934  0.08578342    -0.75100
C902        C  0.82268838  0.90444365  0.97599298     0.93100
O903        O  0.53527483  0.96734875  0.91221180    -0.74900
O904        O  0.84305858  0.88474290  0.96664306    -0.82400
Mg905      Mg  0.59155744  0.51307235  0.96365104     1.58000
C906        C  0.90343688  0.58285846  0.02734202     0.93000
O907        O  0.65414577  0.55907720  0.00451051    -0.80600
H908        H  0.51871660  0.58741552  0.11227965    -0.06000
C909        C  0.93254187  0.00351741  0.92230997     0.87900
O910        O  0.96291148  0.92849498  0.08629536    -0.75100
O911        O  0.57177003  0.56011110  0.96415421    -0.87900
O912        O  0.94241679  0.60318467  0.01172892    -0.80700
C913        C  0.58154010  0.68002579  0.97593734     0.93100
C914        C  0.67414555  0.59704654  0.02308664     0.93000
Mg915      Mg  0.90464123  0.99246152  0.03464534     1.58000
O916        O  0.84136819  0.94318909  0.99315052    -0.80600
O917        O  0.96114371  0.53924382  0.08626315    -0.74900
O918        O  0.60036467  0.66026643  0.99237995    -0.80700
O919        O  0.61316356  0.96391548  0.96249151    -0.82400
O920        O  0.90057494  0.84564560  0.00675543    -0.80800
C921        C  0.99976896  0.56923206  0.07935962     0.87400
O922        O  0.92528079  0.94581293  0.03571236    -0.87900
O923        O  0.94226265  0.52037219  0.96545870    -0.88000
O924        O  0.92355661  0.96481692  0.91483516    -0.75100
Mg925      Mg  0.58411447  0.59746779  0.03430044     1.58000
O926        O  0.54093574  0.66078826  0.96839218    -0.82400
H927        H  0.56444294  0.98322361  0.10946450    -0.06200
O928        O  0.98143545  0.92965368  0.96430994    -0.87700
H929        H  0.97748891  0.91818521  0.88854077    -0.06000
H930        H  0.91431132  0.93702764  0.11147394    -0.06200
C931        C  0.49723864  0.93697320  0.92068033     0.87400
C932        C  0.56498244  0.50282834  0.07741842     0.88000
C933        C  0.93280199  0.93659645  0.07888400     0.88000
H934        H  0.93291309  0.52262362  0.88979281    -0.06100
O935        O  0.53499430  0.57910205  0.91435707    -0.75200
Mg936      Mg  0.91445573  0.90830366  0.96591798     1.58000
H937        H  0.58301461  0.56990481  0.88852367    -0.06200
C938        C  0.59336034  0.92387068  0.97299635     0.93000
O939        O  0.96029673  0.84754322  0.03432963    -0.82400
C940        C  0.92022245  0.82708464  0.02458094     0.93100
O941        O  0.65539550  0.61826740  0.03350715    -0.82400
Mg942      Mg  0.98964794  0.58856691  0.96763291     1.58200
O943        O  0.55554744  0.90442141  0.99172739    -0.80700
O944        O  0.88282339  0.54211774  0.03423427    -0.82400
O945        O  0.98752602  0.56011485  0.46444342    -0.88000
C946        C  0.56889275  0.56881332  0.57927439     0.88000
Mg947      Mg  0.92069461  0.51289671  0.46390818     1.58100
O948        O  0.57728481  0.52050689  0.46491618    -0.87700
O949        O  0.54315154  0.57937097  0.41444232    -0.75100
C950        C  0.90620126  0.82664940  0.52321515     0.93100
O951        O  0.96679422  0.54059899  0.58593264    -0.74900
O952        O  0.88647631  0.84689690  0.53322298    -0.82400
Mg953      Mg  0.51267142  0.59712071  0.53483066     1.58000
C954        C  0.58096032  0.90453502  0.47488662     0.93000
O955        O  0.55920234  0.66017427  0.49327444    -0.80600
H956        H  0.58886975  0.52315291  0.38926350    -0.06000
C957        C  0.00317758  0.93599148  0.57785772     0.87900
O958        O  0.93118981  0.96759100  0.41186453    -0.75100
O959        O  0.55984820  0.57702373  0.53633933    -0.87900
O960        O  0.60109875  0.94324553  0.49217026    -0.80700
C961        C  0.67878091  0.58290358  0.52698654     0.93100
C962        C  0.59771664  0.68004447  0.47655930     0.93000
Mg963      Mg  0.99302668  0.90832309  0.46466491     1.58000
O964        O  0.94432170  0.84544106  0.50512183    -0.80600
O965        O  0.54043395  0.96514835  0.41392820    -0.74900
O966        O  0.66011579  0.60326993  0.51161520    -0.80700
O967        O  0.96206920  0.61771885  0.53454681    -0.82400
O968        O  0.84796056  0.90395592  0.49110850    -0.80800
C969        C  0.57014640  0.00386247  0.42164887     0.87400
O970        O  0.94730846  0.92950115  0.46340149    -0.87900
O971        O  0.51980523  0.94554579  0.53469757    -0.88000
O972        O  0.96494276  0.92773166  0.58543829    -0.75100
Mg973      Mg  0.59813342  0.58870287  0.46756508     1.58000
O974        O  0.65862856  0.54212761  0.53355777    -0.82400
H975        H  0.98579668  0.57025752  0.38891488    -0.06200
O976        O  0.93093008  0.98594417  0.53386963    -0.87700
H977        H  0.91829264  0.98225668  0.60929426    -0.06000
H978        H  0.93972372  0.91864469  0.38751425    -0.06200
C979        C  0.93727868  0.50206046  0.57735594     0.87400
C980        C  0.50463783  0.57043004  0.42156579     0.88000
C981        C  0.93880804  0.93716249  0.41990178     0.88000
H982        H  0.52223620  0.93626811  0.61032839    -0.06100
O983        O  0.57748467  0.53880073  0.58584860    -0.75200
Mg984      Mg  0.90965821  0.91858266  0.53300578     1.58000
H985        H  0.56820269  0.58679680  0.61237006    -0.06200
C986        C  0.92200445  0.59631283  0.52425495     0.93000
O987        O  0.84996307  0.96369948  0.46273054    -0.82400
C988        C  0.82963569  0.92359903  0.47284503     0.93100
O989        O  0.61907781  0.66090920  0.46867849    -0.82400
Mg990      Mg  0.58712743  0.99233326  0.53384263     1.58200
O991        O  0.90407768  0.55841086  0.50550713    -0.80700
O992        O  0.54087509  0.88488383  0.46524013    -0.82400
C993        C  0.67674146  0.84179201  0.58247912     0.01700
C994        C  0.67566672  0.87535566  0.61020722     0.04500
C995        C  0.66736080  0.87103714  0.66336629    -0.11600
C996        C  0.66937853  0.83840680  0.69125318     0.23800
C997        C  0.68043728  0.81079984  0.66545504    -0.12100
C998        C  0.68592659  0.81364048  0.61143450     0.05200
C999        C  0.66724706  0.83837286  0.74845867     0.27600
C1000       C  0.70271805  0.86994233  0.77642755    -0.12800
C1001       C  0.69930639  0.87397916  0.82973675     0.05700
C1002       C  0.66422577  0.84083827  0.85742575    -0.08800
C1003       C  0.62633453  0.81355736  0.82861195     0.06500
C1004       C  0.62836196  0.81148525  0.77437077    -0.13100
Br1005     Br  0.68932524  0.77012551  0.70463014    -0.05200
Br1006     Br  0.69896406  0.93253004  0.58088336     0.00400
Br1007     Br  0.73428055  0.93098468  0.85912420     0.00900
Br1008     Br  0.57764891  0.77316795  0.73504310    -0.03500
Br1009     Br  0.71564812  0.78683061  0.58051238     0.01000
Br1010     Br  0.65435944  0.91076252  0.69819883    -0.02800
Br1011     Br  0.75574506  0.90900732  0.74149524    -0.03700
Br1012     Br  0.57005430  0.78650801  0.86038788     0.00300
C1013       C  0.66390235  0.84145299  0.08248845     0.01700
C1014       C  0.69835028  0.87529926  0.11031673     0.04500
C1015       C  0.70242512  0.87103431  0.16349922    -0.11600
C1016       C  0.66808538  0.83782697  0.19119818     0.23800
C1017       C  0.62955191  0.80969847  0.16526193    -0.12100
C1018       C  0.62672045  0.81278157  0.11131384     0.05200
C1019       C  0.67010859  0.83778280  0.24839516     0.27600
C1020       C  0.68275524  0.81149304  0.27451658    -0.12800
C1021       C  0.68658949  0.81352122  0.32881445     0.05700
C1022       C  0.67548883  0.84046394  0.35737059    -0.08800
C1023       C  0.67307205  0.87321717  0.32943832     0.06500
C1024       C  0.66541042  0.86885033  0.27618702    -0.13100
Br1025     Br  0.58037679  0.76794529  0.20413505    -0.05200
Br1026     Br  0.73210230  0.93244204  0.08082112     0.00400
Br1027     Br  0.71585473  0.78671578  0.36112657     0.00900
Br1028     Br  0.65013319  0.90687083  0.24111902    -0.03500
Br1029     Br  0.57001074  0.78581954  0.08048550     0.01000
Br1030     Br  0.75481633  0.91159232  0.19864573    -0.02800
Br1031     Br  0.69639693  0.77411388  0.23540140    -0.03700
Br1032     Br  0.69535839  0.93045872  0.35812195     0.00300
C1033       C  0.83998681  0.66650085  0.64210624     0.01700
C1034       C  0.87356831  0.70051558  0.67075806     0.04500
C1035       C  0.87009696  0.70216531  0.72453390    -0.11600
C1036       C  0.83755152  0.66636705  0.75116611     0.23800
C1037       C  0.80992524  0.62845237  0.72376420    -0.12100
C1038       C  0.81239970  0.62779291  0.66954487     0.05200
C1039       C  0.83584857  0.66731833  0.80834109     0.27600
C1040       C  0.86742476  0.66481888  0.83771718    -0.12800
C1041       C  0.87023893  0.67269831  0.89092295     0.05700
C1042       C  0.83572196  0.67276740  0.91727646    -0.08800
C1043       C  0.80803272  0.68173672  0.88710447     0.06500
C1044       C  0.80709184  0.67733973  0.83295145    -0.13100
Br1045     Br  0.76966381  0.57712950  0.76091046    -0.05200
Br1046     Br  0.92993530  0.73658348  0.64096742     0.00400
Br1047     Br  0.92685662  0.69775679  0.92185128     0.00900
Br1048     Br  0.76739118  0.68631472  0.79194973    -0.03500
Br1049     Br  0.78521180  0.57194274  0.63587391     0.01000
Br1050     Br  0.91082459  0.75337123  0.76177480    -0.02800
Br1051     Br  0.90775649  0.65168679  0.80511775    -0.03700
Br1052     Br  0.77950259  0.71026178  0.91665539     0.00300
C1053       C  0.83638628  0.67154027  0.41721370     0.01700
C1054       C  0.80215480  0.67220110  0.39072061     0.04500
C1055       C  0.79683073  0.66417159  0.33752739    -0.11600
C1056       C  0.83029465  0.66526633  0.30833068     0.23800
C1057       C  0.86878890  0.67420461  0.33304576    -0.12100
C1058       C  0.87262894  0.67928281  0.38709386     0.05200
C1059       C  0.82781351  0.66476289  0.25114672     0.27600
C1060       C  0.81631441  0.62678398  0.22327497    -0.12800
C1061       C  0.81363623  0.62679518  0.16900095     0.05700
C1062       C  0.82585965  0.66600789  0.14210044    -0.08800
C1063       C  0.82731729  0.70020574  0.17122682     0.06500
C1064       C  0.83257538  0.70133935  0.22494052    -0.13100
Br1065     Br  0.91670392  0.68098328  0.29230390    -0.05200
Br1066     Br  0.77116665  0.69773454  0.42167972     0.00400
Br1067     Br  0.78463155  0.57139372  0.13430287     0.00900
Br1068     Br  0.84527250  0.75296122  0.26266562    -0.03500
Br1069     Br  0.92998126  0.70770901  0.41621685     0.01000
Br1070     Br  0.74398455  0.65299406  0.30456170    -0.02800
Br1071     Br  0.80308458  0.57456185  0.25982143    -0.03700
Br1072     Br  0.80724722  0.73677795  0.14248234     0.00300
loop_ 
_geom_bond_atom_site_label_1 
_geom_bond_atom_site_label_2 
_geom_bond_distance 
_geom_bond_site_symmetry_2 
_ccdc_geom_bond_type 
C1            C3   1.553       .  S
C1            C5   1.552       .  S
C1            C4   1.539       .  S
C1          C258   1.541       .  S
C2            C6   1.542   1_556  S
C2            C8   1.527   1_556  S
C2            C7   1.535   1_556  S
C2          C238   1.544       .  S
C3           C11   1.390       .  A
C3            C6   1.398       .  A
C4           C15   1.382       .  A
C4            C7   1.394       .  A
C5           C19   1.390       .  A
C5            C8   1.395       .  A
C6            C9   1.375   1_554  A
C7           C13   1.374   1_554  A
C8           C16   1.368   1_554  A
C9           N10   1.351   1_556  A
C9           H22   1.082       .  S
N10          C11   1.357       .  A
N10         C102   1.429       .  S
C11          H12   1.083       .  S
C13          N14   1.354   1_556  A
C13          H23   1.083       .  S
N14          C15   1.355       .  A
N14         C110   1.426       .  S
C15          H21   1.082       .  S
C16          N17   1.350   1_556  A
C16          H18   1.083       .  S
N17          C19   1.358       .  A
N17         C136   1.426       .  S
C19          H20   1.082       .  S
C24          C26   1.535       .  S
C24          C28   1.542       .  S
C24          C27   1.527       .  S
C24         C249   1.544       .  S
C25          C29   1.539       .  S
C25          C31   1.553       .  S
C25          C30   1.551       .  S
C25         C229   1.540       .  S
C26          C34   1.373       .  A
C26          C29   1.394       .  A
C27          C38   1.369       .  A
C27          C30   1.395       .  A
C28          C42   1.374       .  A
C28          C31   1.398       .  A
C29          C32   1.383       .  A
C30          C36   1.389       .  A
C31          C39   1.390       .  A
C32          N33   1.356       .  A
C32          H45   1.082       .  S
N33          C34   1.353       .  A
N33         C182   1.426       .  S
C34          H35   1.083       .  S
C36          N37   1.358       .  A
C36          H46   1.082       .  S
N37          C38   1.351       .  A
N37         C146   1.427       .  S
C38          H44   1.083       .  S
C39          N40   1.357       .  A
C39          H41   1.083       .  S
N40          C42   1.351       .  A
N40         C157   1.429       .  S
C42          H43   1.082       .  S
C47          C49   1.521   1_554  S
C47          C51   1.540   1_554  S
C47          C50   1.541   1_554  S
C47         C209   1.543       .  S
C48          C52   1.533       .  S
C48          C54   1.556       .  S
C48          C53   1.557       .  S
C48         C198   1.541       .  S
C49          C57   1.367   1_556  A
C49          C52   1.388       .  A
C50          C61   1.376   1_556  A
C50          C53   1.400       .  A
C51          C65   1.374   1_556  A
C51          C54   1.401       .  A
C52          C55   1.382       .  A
C53          C59   1.391       .  A
C54          C62   1.390       .  A
C55          N56   1.356       .  A
C55          H68   1.083       .  S
N56          C57   1.352   1_556  A
N56         C134   1.422       .  S
C57          H58   1.082       .  S
C59          N60   1.356       .  A
C59          H69   1.082       .  S
N60          C61   1.350   1_556  A
N60          C98   1.430       .  S
C61          H67   1.081       .  S
C62          N63   1.358       .  A
C62          H64   1.082       .  S
N63          C65   1.352   1_556  A
N63         C109   1.431       .  S
C65          H66   1.082       .  S
C70          C72   1.557       .  S
C70          C74   1.532       .  S
C70          C73   1.555       .  S
C70         C218   1.541       .  S
C71          C75   1.542       .  S
C71          C77   1.521       .  S
C71          C76   1.541       .  S
C71         C189   1.544       .  S
C72          C80   1.391       .  A
C72          C75   1.400       .  A
C73          C84   1.390       .  A
C73          C76   1.402       .  A
C74          C88   1.382       .  A
C74          C77   1.388       .  A
C75          C78   1.376       .  A
C76          C82   1.375       .  A
C77          C85   1.367       .  A
C78          N79   1.350       .  A
C78          H91   1.081       .  S
N79          C80   1.356       .  A
N79         C150   1.430       .  S
C80          H81   1.082       .  S
C82          N83   1.352       .  A
C82          H92   1.082       .  S
N83          C84   1.358       .  A
N83         C158   1.431       .  S
C84          H90   1.082       .  S
C85          N86   1.352       .  A
C85          H87   1.082       .  S
N86          C88   1.355       .  A
N86         C184   1.421       .  S
C88          H89   1.082       .  S
O93         Mg95   2.131       .  S
O93        Mg369   2.172   1_554  S
O93         C396   1.235       .  S
C94         H133   1.081       .  S
C94         O107   1.235       .  S
C94         O131   1.268       .  A
Mg95        O660   2.171   1_454  S
Mg95        O139   2.279   1_554  S
Mg95        O671   2.262   1_455  S
Mg95        O642   2.290   1_455  S
O96        Mg121   2.151       .  S
O96        Mg674   2.163   1_454  S
O96         C653   1.236   1_455  S
O97         C128   1.267       .  A
O97        Mg121   2.284       .  S
C98         O100   1.270       .  A
C98         O112   1.279       .  A
O99         C127   1.267   1_455  A
O99        Mg369   2.283       .  S
O100       Mg132   2.263       .  S
Mg101       O107   2.133       .  S
Mg101       O361   2.172   1_546  S
Mg101       O103   2.272   1_556  S
Mg101       O367   2.283   1_545  S
Mg101       O383   2.254   1_545  S
C102        O140   1.274       .  A
C102        O108   1.278       .  A
O103        C110   1.270       .  A
H104        C653   1.081   1_455  S
C105        H398   1.082       .  S
C105        O387   1.235       .  S
C105        O120   1.270       .  A
O106        C129   1.268       .  A
O106       Mg631   2.290       .  S
O107       Mg121   2.168   1_556  S
O108       Mg138   2.316   1_554  S
C109        O122   1.277       .  A
C109        O114   1.273       .  A
C110        O137   1.273       .  A
Mg111       O118   2.142       .  S
Mg111       O387   2.167   1_554  S
Mg111       O112   2.324   1_554  S
Mg111       O381   2.301       .  S
Mg111       O408   2.276       .  S
O113        C117   1.270       .  A
O113       Mg379   2.301   1_545  S
O114       Mg121   2.293   1_556  S
O115        C134   1.269       .  A
O115       Mg369   2.254       .  S
O116        C136   1.275       .  A
O116       Mg132   2.298   1_554  S
C117        H640   1.081       .  S
C117        O632   1.236       .  S
O118       Mg132   2.169   1_554  S
O118        C129   1.235       .  S
O119       Mg138   2.164       .  S
O119       Mg379   2.167   1_546  S
O119        C373   1.235       .  S
O120       Mg132   2.300       .  S
Mg121       O137   2.280       .  S
O122       Mg674   2.300   1_455  S
H123        C396   1.082       .  S
O124       Mg132   2.129       .  S
O124       Mg631   2.171   1_556  S
O124        C663   1.234       .  S
H125        C663   1.081       .  S
H126        C129   1.081       .  S
C127        H661   1.081       .  S
C127        O660   1.234       .  S
C128        H391   1.082   1_545  S
C128        O361   1.235   1_545  S
H130        C373   1.082       .  S
O131       Mg674   2.290   1_455  S
C134        O139   1.272       .  A
O135        C136   1.270       .  A
O135       Mg631   2.262       .  S
Mg138       O632   2.163   1_556  S
Mg138       O658   2.300       .  S
Mg138       O667   2.290       .  S
O140       Mg379   2.276   1_545  S
O141       Mg143   2.131       .  S
O141       Mg685   2.167       .  S
O141        C712   1.235       .  S
C142        H181   1.081       .  S
C142        O155   1.236       .  S
C142        O179   1.270       .  A
Mg143       O440   2.171   1_545  S
Mg143       O187   2.272       .  S
Mg143       O451   2.250   1_545  S
Mg143       O422   2.284   1_545  S
O144       Mg169   2.165       .  S
O144       Mg454   2.167   1_545  S
O144        C433   1.235       .  S
O145        C176   1.268       .  A
O145       Mg169   2.290       .  S
C146        O148   1.270       .  A
C146        O160   1.275       .  A
O147        C175   1.267       .  A
O147       Mg685   2.285       .  S
O148       Mg180   2.266       .  S
Mg149       O155   2.150       .  S
Mg149       O677   2.167   1_455  S
Mg149       O151   2.294       .  S
Mg149       O683   2.285   1_455  S
Mg149       O699   2.281   1_455  S
C150        O188   1.270       .  A
C150        O156   1.279       .  A
O151        C158   1.273       .  A
H152        C433   1.081       .  S
C153        H714   1.082       .  S
C153        O703   1.234       .  S
C153        O168   1.268       .  A
O154        C177   1.267       .  A
O154       Mg411   2.284       .  S
O155       Mg169   2.163       .  S
O156       Mg186   2.324       .  S
C157        O170   1.274       .  A
C157        O162   1.278       .  A
C158        O185   1.277       .  A
Mg159       O166   2.128       .  S
Mg159       O703   2.170       .  S
Mg159       O160   2.297       .  S
Mg159       O697   2.301       .  S
Mg159       O724   2.262       .  S
O161        C165   1.270       .  A
O161       Mg695   2.301   1_455  S
O162       Mg169   2.316       .  S
O163        C182   1.273       .  A
O163       Mg685   2.281       .  S
O164        C184   1.272       .  A
O164       Mg180   2.280       .  S
C165        H420   1.081       .  S
C165        O412   1.235       .  S
O166       Mg180   2.172       .  S
O166        C177   1.235       .  S
O167       Mg186   2.141       .  S
O167       Mg695   2.170   1_455  S
O167        C689   1.234       .  S
O168       Mg180   2.290       .  S
Mg169       O185   2.301       .  S
O170       Mg454   2.275   1_545  S
H171        C712   1.082       .  S
O172       Mg180   2.133       .  S
O172       Mg411   2.171       .  S
O172        C443   1.235       .  S
H173        C443   1.081       .  S
H174        C177   1.081       .  S
C175        H441   1.081   1_545  S
C175        O440   1.235   1_545  S
C176        H707   1.082   1_455  S
C176        O677   1.235   1_455  S
H178        C689   1.082       .  S
O179       Mg454   2.300   1_545  S
C182        O187   1.270       .  A
O183        C184   1.269       .  A
O183       Mg411   2.250       .  S
Mg186       O412   2.167       .  S
Mg186       O438   2.275       .  S
Mg186       O447   2.300       .  S
O188       Mg695   2.262   1_455  S
C189        C190   1.418       .  A
C189        C194   1.422       .  A
C190        C191   1.403       .  A
C190       Br202   1.936       .  S
C191        C192   1.407       .  A
C191       Br206   1.931       .  S
C192        C193   1.407       .  A
C192        C195   1.486       .  S
C193        C194   1.412       .  A
C193       Br201   1.929       .  S
C194       Br205   1.934       .  S
C195        C196   1.406       .  A
C195        C200   1.407       .  A
C196        C197   1.402       .  A
C196       Br207   1.932       .  S
C197        C198   1.418       .  A
C197       Br203   1.935       .  S
C198        C199   1.424       .  A
C199        C200   1.413       .  A
C199       Br208   1.935       .  S
C200       Br204   1.930       .  S
C209        C210   1.418       .  A
C209        C214   1.422       .  A
C210        C211   1.403       .  A
C210       Br222   1.936       .  S
C211        C212   1.407       .  A
C211       Br226   1.931       .  S
C212        C213   1.407       .  A
C212        C215   1.485       .  S
C213        C214   1.411       .  A
C213       Br221   1.929       .  S
C214       Br225   1.934       .  S
C215        C216   1.408       .  A
C215        C220   1.406       .  A
C216        C217   1.413       .  A
C216       Br227   1.930       .  S
C217        C218   1.424       .  A
C217       Br223   1.935       .  S
C218        C219   1.418       .  A
C219        C220   1.401       .  A
C219       Br228   1.935       .  S
C220       Br224   1.932       .  S
C229        C230   1.418       .  A
C229        C234   1.425       .  A
C230        C231   1.404       .  A
C230       Br242   1.934       .  S
C231        C232   1.408       .  A
C231       Br246   1.932       .  S
C232        C233   1.406       .  A
C232        C235   1.485       .  S
C233        C234   1.410       .  A
C233       Br241   1.931       .  S
C234       Br245   1.936       .  S
C235        C236   1.406       .  A
C235        C240   1.407       .  A
C236        C237   1.402       .  A
C236       Br247   1.931       .  S
C237        C238   1.419       .  A
C237       Br243   1.936       .  S
C238        C239   1.423       .  A
C239        C240   1.412       .  A
C239       Br248   1.934       .  S
C240       Br244   1.930       .  S
C249        C250   1.419       .  A
C249        C254   1.423       .  A
C250        C251   1.402       .  A
C250       Br262   1.936       .  S
C251        C252   1.406       .  A
C251       Br266   1.931       .  S
C252        C253   1.407       .  A
C252        C255   1.485       .  S
C253        C254   1.411       .  A
C253       Br261   1.930       .  S
C254       Br265   1.934       .  S
C255        C256   1.406       .  A
C255        C260   1.408       .  A
C256        C257   1.411       .  A
C256       Br267   1.931       .  S
C257        C258   1.425       .  A
C257       Br263   1.937       .  S
C258        C259   1.417       .  A
C259        C260   1.403       .  A
C259       Br268   1.934       .  S
C260       Br264   1.932       .  S
C269        C271   1.553       .  S
C269        C273   1.552       .  S
C269        C272   1.539       .  S
C269        C526   1.541       .  S
C270        C274   1.542   1_556  S
C270        C276   1.527   1_556  S
C270        C275   1.535   1_556  S
C270        C506   1.544       .  S
C271        C279   1.390       .  A
C271        C274   1.398       .  A
C272        C283   1.382       .  A
C272        C275   1.394       .  A
C273        C287   1.390       .  A
C273        C276   1.395       .  A
C274        C277   1.375   1_554  A
C275        C281   1.374   1_554  A
C276        C284   1.368   1_554  A
C277        N278   1.351   1_556  A
C277        H290   1.082       .  S
N278        C279   1.357       .  A
N278        C370   1.429       .  S
C279        H280   1.083       .  S
C281        N282   1.354   1_556  A
C281        H291   1.083       .  S
N282        C283   1.355       .  A
N282        C378   1.426       .  S
C283        H289   1.082       .  S
C284        N285   1.350   1_556  A
C284        H286   1.083       .  S
N285        C287   1.358       .  A
N285        C404   1.426       .  S
C287        H288   1.082       .  S
C292        C294   1.535       .  S
C292        C296   1.542       .  S
C292        C295   1.527       .  S
C292        C517   1.544       .  S
C293        C297   1.539       .  S
C293        C299   1.553       .  S
C293        C298   1.551       .  S
C293        C497   1.540       .  S
C294        C302   1.373       .  A
C294        C297   1.394       .  A
C295        C306   1.369       .  A
C295        C298   1.395       .  A
C296        C310   1.374       .  A
C296        C299   1.398       .  A
C297        C300   1.383       .  A
C298        C304   1.389       .  A
C299        C307   1.390       .  A
C300        N301   1.356       .  A
C300        H313   1.082       .  S
N301        C302   1.353       .  A
N301        C450   1.426       .  S
C302        H303   1.083       .  S
C304        N305   1.358       .  A
C304        H314   1.082       .  S
N305        C306   1.351       .  A
N305        C414   1.427       .  S
C306        H312   1.083       .  S
C307        N308   1.357       .  A
C307        H309   1.083       .  S
N308        C310   1.351       .  A
N308        C425   1.429       .  S
C310        H311   1.082       .  S
C315        C317   1.521   1_554  S
C315        C319   1.540   1_554  S
C315        C318   1.541   1_554  S
C315        C477   1.543       .  S
C316        C320   1.533       .  S
C316        C322   1.556       .  S
C316        C321   1.557       .  S
C316        C466   1.541       .  S
C317        C325   1.367   1_556  A
C317        C320   1.388       .  A
C318        C329   1.376   1_556  A
C318        C321   1.400       .  A
C319        C333   1.374   1_556  A
C319        C322   1.401       .  A
C320        C323   1.382       .  A
C321        C327   1.391       .  A
C322        C330   1.390       .  A
C323        N324   1.356       .  A
C323        H336   1.083       .  S
N324        C325   1.352   1_556  A
N324        C402   1.422       .  S
C325        H326   1.082       .  S
C327        N328   1.356       .  A
C327        H337   1.082       .  S
N328        C329   1.350   1_556  A
N328        C366   1.430       .  S
C329        H335   1.081       .  S
C330        N331   1.358       .  A
C330        H332   1.082       .  S
N331        C333   1.352   1_556  A
N331        C377   1.431       .  S
C333        H334   1.082       .  S
C338        C340   1.557       .  S
C338        C342   1.532       .  S
C338        C341   1.555       .  S
C338        C486   1.541       .  S
C339        C343   1.542       .  S
C339        C345   1.521       .  S
C339        C344   1.541       .  S
C339        C457   1.544       .  S
C340        C348   1.391       .  A
C340        C343   1.400       .  A
C341        C352   1.390       .  A
C341        C344   1.402       .  A
C342        C356   1.382       .  A
C342        C345   1.388       .  A
C343        C346   1.376       .  A
C344        C350   1.375       .  A
C345        C353   1.367       .  A
C346        N347   1.350       .  A
C346        H359   1.081       .  S
N347        C348   1.356       .  A
N347        C418   1.430       .  S
C348        H349   1.082       .  S
C350        N351   1.352       .  A
C350        H360   1.082       .  S
N351        C352   1.358       .  A
N351        C426   1.431       .  S
C352        H358   1.082       .  S
C353        N354   1.352       .  A
C353        H355   1.082       .  S
N354        C356   1.355       .  A
N354        C452   1.421       .  S
C356        H357   1.082       .  S
O361       Mg363   2.131       .  S
C362        H401   1.081       .  S
C362        O375   1.235       .  S
C362        O399   1.268       .  A
Mg363       O928   2.171   1_454  S
Mg363       O407   2.279   1_554  S
Mg363       O939   2.262   1_455  S
Mg363       O910   2.290   1_455  S
O364       Mg942   2.163   1_454  S
O364       Mg389   2.151       .  S
O364        C921   1.236   1_455  S
O365        C396   1.267       .  A
O365       Mg389   2.284       .  S
C366        O368   1.270       .  A
C366        O380   1.279       .  A
O367        C395   1.267   1_455  A
O368       Mg400   2.263       .  S
Mg369       O375   2.133       .  S
Mg369       O371   2.272   1_556  S
C370        O408   1.274       .  A
C370        O376   1.278       .  A
O371        C378   1.270       .  A
H372        C921   1.081   1_455  S
C373        O388   1.270   1_545  A
O374        C397   1.268       .  A
O374       Mg899   2.290       .  S
O375       Mg389   2.168   1_556  S
O376       Mg406   2.316   1_554  S
C377        O390   1.277       .  A
C377        O382   1.273       .  A
C378        O405   1.273       .  A
Mg379       O386   2.142       .  S
Mg379       O380   2.324   1_554  S
O381        C385   1.270       .  A
O382       Mg389   2.293   1_556  S
O383        C402   1.269       .  A
O384        C404   1.275       .  A
O384       Mg400   2.298   1_554  S
C385        H908   1.081       .  S
C385        O900   1.236       .  S
O386       Mg400   2.169   1_554  S
O386        C397   1.235       .  S
O387       Mg406   2.164       .  S
O388       Mg400   2.300       .  S
Mg389       O405   2.280       .  S
O390       Mg942   2.300   1_455  S
O392       Mg899   2.171   1_556  S
O392       Mg400   2.129       .  S
O392        C931   1.234       .  S
H393        C931   1.081       .  S
H394        C397   1.081       .  S
C395        H929   1.081       .  S
C395        O928   1.234       .  S
O399       Mg942   2.290   1_455  S
C402        O407   1.272       .  A
O403        C404   1.270       .  A
O403       Mg899   2.262       .  S
Mg406       O900   2.163   1_556  S
Mg406       O926   2.300       .  S
Mg406       O935   2.290       .  S
O409       Mg411   2.131       .  S
O409       Mg953   2.167       .  S
O409        C980   1.235       .  S
C410        H449   1.081       .  S
C410        O423   1.236       .  S
C410        O447   1.270       .  A
Mg411       O455   2.272       .  S
O412       Mg437   2.165       .  S
O413        C444   1.268       .  A
O413       Mg437   2.290       .  S
C414        O416   1.270       .  A
C414        O428   1.275       .  A
O415        C443   1.267       .  A
O415       Mg953   2.285       .  S
O416       Mg448   2.266       .  S
Mg417       O945   2.167   1_455  S
Mg417       O423   2.150       .  S
Mg417       O951   2.285   1_455  S
Mg417       O967   2.281   1_455  S
Mg417       O419   2.294       .  S
C418        O456   1.270       .  A
C418        O424   1.279       .  A
O419        C426   1.273       .  A
C421        H982   1.082       .  S
C421        O971   1.234       .  S
C421        O436   1.268       .  A
O422        C445   1.267       .  A
O423       Mg437   2.163       .  S
O424       Mg454   2.324       .  S
C425        O438   1.274       .  A
C425        O430   1.278       .  A
C426        O453   1.277       .  A
Mg427       O434   2.128       .  S
Mg427       O971   2.170       .  S
Mg427       O428   2.297       .  S
Mg427       O965   2.301       .  S
Mg427       O992   2.262       .  S
O429        C433   1.270   1_565  A
O429       Mg963   2.301   1_455  S
O430       Mg437   2.316       .  S
O431        C450   1.273       .  A
O431       Mg953   2.281       .  S
O432        C452   1.272       .  A
O432       Mg448   2.280       .  S
O434       Mg448   2.172       .  S
O434        C445   1.235       .  S
O435       Mg963   2.170   1_455  S
O435       Mg454   2.141       .  S
O435        C957   1.234       .  S
O436       Mg448   2.290       .  S
Mg437       O453   2.301       .  S
H439        C980   1.082       .  S
O440       Mg448   2.133       .  S
H442        C445   1.081       .  S
C444        H975   1.082   1_455  S
C444        O945   1.235   1_455  S
H446        C957   1.082       .  S
C450        O455   1.270       .  A
O451        C452   1.269       .  A
O456       Mg963   2.262   1_455  S
C457        C458   1.418       .  A
C457        C462   1.422       .  A
C458        C459   1.403       .  A
C458       Br470   1.936       .  S
C459        C460   1.407       .  A
C459       Br474   1.931       .  S
C460        C461   1.407       .  A
C460        C463   1.486       .  S
C461        C462   1.412       .  A
C461       Br469   1.929       .  S
C462       Br473   1.934       .  S
C463        C464   1.406       .  A
C463        C468   1.407       .  A
C464        C465   1.402       .  A
C464       Br475   1.932       .  S
C465        C466   1.418       .  A
C465       Br471   1.935       .  S
C466        C467   1.424       .  A
C467        C468   1.413       .  A
C467       Br476   1.935       .  S
C468       Br472   1.930       .  S
C477        C478   1.418       .  A
C477        C482   1.422       .  A
C478        C479   1.403       .  A
C478       Br490   1.936       .  S
C479        C480   1.407       .  A
C479       Br494   1.931       .  S
C480        C481   1.407       .  A
C480        C483   1.485       .  S
C481        C482   1.411       .  A
C481       Br489   1.929       .  S
C482       Br493   1.934       .  S
C483        C484   1.408       .  A
C483        C488   1.406       .  A
C484        C485   1.413       .  A
C484       Br495   1.930       .  S
C485        C486   1.424       .  A
C485       Br491   1.935       .  S
C486        C487   1.418       .  A
C487        C488   1.401       .  A
C487       Br496   1.935       .  S
C488       Br492   1.932       .  S
C497        C498   1.418       .  A
C497        C502   1.425       .  A
C498        C499   1.404       .  A
C498       Br510   1.934       .  S
C499        C500   1.408       .  A
C499       Br514   1.932       .  S
C500        C501   1.406       .  A
C500        C503   1.485       .  S
C501        C502   1.410       .  A
C501       Br509   1.931       .  S
C502       Br513   1.936       .  S
C503        C504   1.406       .  A
C503        C508   1.407       .  A
C504        C505   1.402       .  A
C504       Br515   1.931       .  S
C505        C506   1.419       .  A
C505       Br511   1.936       .  S
C506        C507   1.423       .  A
C507        C508   1.412       .  A
C507       Br516   1.934       .  S
C508       Br512   1.930       .  S
C517        C518   1.419       .  A
C517        C522   1.423       .  A
C518        C519   1.402       .  A
C518       Br530   1.936       .  S
C519        C520   1.406       .  A
C519       Br534   1.931       .  S
C520        C521   1.407       .  A
C520        C523   1.485       .  S
C521        C522   1.411       .  A
C521       Br529   1.930       .  S
C522       Br533   1.934       .  S
C523        C524   1.406       .  A
C523        C528   1.408       .  A
C524        C525   1.411       .  A
C524       Br535   1.931       .  S
C525        C526   1.425       .  A
C525       Br531   1.937       .  S
C526        C527   1.417       .  A
C527        C528   1.403       .  A
C527       Br536   1.934       .  S
C528       Br532   1.932       .  S
C537        C539   1.553       .  S
C537        C541   1.552       .  S
C537        C540   1.539       .  S
C537        C794   1.541       .  S
C538        C542   1.542   1_556  S
C538        C544   1.527   1_556  S
C538        C543   1.535   1_556  S
C538        C774   1.544       .  S
C539        C547   1.390       .  A
C539        C542   1.398       .  A
C540        C551   1.382       .  A
C540        C543   1.394       .  A
C541        C555   1.390       .  A
C541        C544   1.395       .  A
C542        C545   1.375   1_554  A
C543        C549   1.374   1_554  A
C544        C552   1.368   1_554  A
C545        N546   1.351   1_556  A
C545        H558   1.082       .  S
N546        C547   1.357       .  A
N546        C638   1.429       .  S
C547        H548   1.083       .  S
C549        N550   1.354   1_556  A
C549        H559   1.083       .  S
N550        C551   1.355       .  A
N550        C646   1.426       .  S
C551        H557   1.082       .  S
C552        N553   1.350   1_556  A
C552        H554   1.083       .  S
N553        C555   1.358       .  A
N553        C672   1.426       .  S
C555        H556   1.082       .  S
C560        C562   1.535       .  S
C560        C564   1.542       .  S
C560        C563   1.527       .  S
C560        C785   1.544       .  S
C561        C565   1.539       .  S
C561        C567   1.553       .  S
C561        C566   1.551       .  S
C561        C765   1.540       .  S
C562        C570   1.373       .  A
C562        C565   1.394       .  A
C563        C574   1.369       .  A
C563        C566   1.395       .  A
C564        C578   1.374       .  A
C564        C567   1.398       .  A
C565        C568   1.383       .  A
C566        C572   1.389       .  A
C567        C575   1.390       .  A
C568        N569   1.356       .  A
C568        H581   1.082       .  S
N569        C570   1.353       .  A
N569        C718   1.426       .  S
C570        H571   1.083       .  S
C572        N573   1.358       .  A
C572        H582   1.082       .  S
N573        C574   1.351       .  A
N573        C682   1.427       .  S
C574        H580   1.083       .  S
C575        N576   1.357       .  A
C575        H577   1.083       .  S
N576        C578   1.351       .  A
N576        C693   1.429       .  S
C578        H579   1.082       .  S
C583        C585   1.521   1_554  S
C583        C587   1.540   1_554  S
C583        C586   1.541   1_554  S
C583        C745   1.543       .  S
C584        C588   1.533       .  S
C584        C590   1.556       .  S
C584        C589   1.557       .  S
C584        C734   1.541       .  S
C585        C593   1.367   1_556  A
C585        C588   1.388       .  A
C586        C597   1.376   1_556  A
C586        C589   1.400       .  A
C587        C601   1.374   1_556  A
C587        C590   1.401       .  A
C588        C591   1.382       .  A
C589        C595   1.391       .  A
C590        C598   1.390       .  A
C591        N592   1.356       .  A
C591        H604   1.083       .  S
N592        C593   1.352   1_556  A
N592        C670   1.422       .  S
C593        H594   1.082       .  S
C595        N596   1.356       .  A
C595        H605   1.082       .  S
N596        C597   1.350   1_556  A
N596        C634   1.430       .  S
C597        H603   1.081       .  S
C598        N599   1.358       .  A
C598        H600   1.082       .  S
N599        C601   1.352   1_556  A
N599        C645   1.431       .  S
C601        H602   1.082       .  S
C606        C608   1.557       .  S
C606        C610   1.532       .  S
C606        C609   1.555       .  S
C606        C754   1.541       .  S
C607        C611   1.542       .  S
C607        C613   1.521       .  S
C607        C612   1.541       .  S
C607        C725   1.544       .  S
C608        C616   1.391       .  A
C608        C611   1.400       .  A
C609        C620   1.390       .  A
C609        C612   1.402       .  A
C610        C624   1.382       .  A
C610        C613   1.388       .  A
C611        C614   1.376       .  A
C612        C618   1.375       .  A
C613        C621   1.367       .  A
C614        N615   1.350       .  A
C614        H627   1.081       .  S
N615        C616   1.356       .  A
N615        C686   1.430       .  S
C616        H617   1.082       .  S
C618        N619   1.352       .  A
C618        H628   1.082       .  S
N619        C620   1.358       .  A
N619        C694   1.431       .  S
C620        H626   1.082       .  S
C621        N622   1.352       .  A
C621        H623   1.082       .  S
N622        C624   1.355       .  A
N622        C720   1.421       .  S
C624        H625   1.082       .  S
O629       Mg631   2.131       .  S
O629       Mg905   2.172   1_554  S
O629        C932   1.235       .  S
C630        H669   1.081       .  S
C630        O643   1.235       .  S
C630        O667   1.268       .  A
Mg631       O675   2.279   1_554  S
O632       Mg657   2.151       .  S
O633        C664   1.267       .  A
O633       Mg657   2.284       .  S
C634        O636   1.270       .  A
C634        O648   1.279       .  A
O635        C663   1.267       .  A
O635       Mg905   2.283       .  S
O636       Mg668   2.263       .  S
Mg637       O897   2.172   1_546  S
Mg637       O643   2.133       .  S
Mg637       O903   2.283   1_545  S
Mg637       O919   2.254   1_545  S
Mg637       O639   2.272   1_556  S
C638        O676   1.274       .  A
C638        O644   1.278       .  A
O639        C646   1.270       .  A
C641        H934   1.082       .  S
C641        O923   1.235       .  S
C641        O656   1.270       .  A
O642        C665   1.268       .  A
O643       Mg657   2.168   1_556  S
O644       Mg674   2.316   1_554  S
C645        O658   1.277       .  A
C645        O650   1.273       .  A
C646        O673   1.273       .  A
Mg647       O654   2.142       .  S
Mg647       O923   2.167   1_554  S
Mg647       O648   2.324   1_554  S
Mg647       O917   2.301       .  S
Mg647       O944   2.276       .  S
O649        C653   1.270       .  A
O649       Mg915   2.301   1_545  S
O650       Mg657   2.293   1_556  S
O651        C670   1.269       .  A
O651       Mg905   2.254       .  S
O652        C672   1.275       .  A
O652       Mg668   2.298   1_554  S
O654       Mg668   2.169   1_554  S
O654        C665   1.235       .  S
O655       Mg915   2.167   1_546  S
O655       Mg674   2.164       .  S
O655        C909   1.235       .  S
O656       Mg668   2.300       .  S
Mg657       O673   2.280       .  S
H659        C932   1.082       .  S
O660       Mg668   2.129       .  S
H662        C665   1.081       .  S
C664        H927   1.082   1_545  S
C664        O897   1.235   1_545  S
H666        C909   1.082       .  S
C670        O675   1.272       .  A
O671        C672   1.270       .  A
O676       Mg915   2.276   1_545  S
O677       Mg679   2.131       .  S
C678        H717   1.081       .  S
C678        O691   1.236       .  S
C678        O715   1.270       .  A
Mg679       O976   2.171   1_545  S
Mg679       O723   2.272       .  S
Mg679       O987   2.250   1_545  S
Mg679       O958   2.284   1_545  S
O680       Mg990   2.167   1_545  S
O680       Mg705   2.165       .  S
O680        C969   1.235       .  S
O681        C712   1.268       .  A
O681       Mg705   2.290       .  S
C682        O684   1.270       .  A
C682        O696   1.275       .  A
O683        C711   1.267       .  A
O684       Mg716   2.266       .  S
Mg685       O691   2.150       .  S
Mg685       O687   2.294       .  S
C686        O724   1.270       .  A
C686        O692   1.279       .  A
O687        C694   1.273       .  A
H688        C969   1.081       .  S
C689        O704   1.268   1_455  A
O690        C713   1.267       .  A
O690       Mg947   2.284       .  S
O691       Mg705   2.163       .  S
O692       Mg722   2.324       .  S
C693        O706   1.274       .  A
C693        O698   1.278       .  A
C694        O721   1.277       .  A
Mg695       O702   2.128       .  S
Mg695       O696   2.297       .  S
O697        C701   1.270       .  A
O698       Mg705   2.316       .  S
O699        C718   1.273       .  A
O700        C720   1.272       .  A
O700       Mg716   2.280       .  S
C701        H956   1.081       .  S
C701        O948   1.235       .  S
O702       Mg716   2.172       .  S
O702        C713   1.235       .  S
O703       Mg722   2.141       .  S
O704       Mg716   2.290       .  S
Mg705       O721   2.301       .  S
O706       Mg990   2.275   1_545  S
O708       Mg947   2.171       .  S
O708       Mg716   2.133       .  S
O708        C979   1.235       .  S
H709        C979   1.081       .  S
H710        C713   1.081       .  S
C711        H977   1.081   1_545  S
C711        O976   1.235   1_545  S
O715       Mg990   2.300   1_545  S
C718        O723   1.270       .  A
O719        C720   1.269       .  A
O719       Mg947   2.250       .  S
Mg722       O948   2.167       .  S
Mg722       O974   2.275       .  S
Mg722       O983   2.300       .  S
C725        C726   1.418       .  A
C725        C730   1.422       .  A
C726        C727   1.403       .  A
C726       Br738   1.936       .  S
C727        C728   1.407       .  A
C727       Br742   1.931       .  S
C728        C729   1.407       .  A
C728        C731   1.486       .  S
C729        C730   1.412       .  A
C729       Br737   1.929       .  S
C730       Br741   1.934       .  S
C731        C732   1.406       .  A
C731        C736   1.407       .  A
C732        C733   1.402       .  A
C732       Br743   1.932       .  S
C733        C734   1.418       .  A
C733       Br739   1.935       .  S
C734        C735   1.424       .  A
C735        C736   1.413       .  A
C735       Br744   1.935       .  S
C736       Br740   1.930       .  S
C745        C746   1.418       .  A
C745        C750   1.422       .  A
C746        C747   1.403       .  A
C746       Br758   1.936       .  S
C747        C748   1.407       .  A
C747       Br762   1.931       .  S
C748        C749   1.407       .  A
C748        C751   1.485       .  S
C749        C750   1.411       .  A
C749       Br757   1.929       .  S
C750       Br761   1.934       .  S
C751        C752   1.408       .  A
C751        C756   1.406       .  A
C752        C753   1.413       .  A
C752       Br763   1.930       .  S
C753        C754   1.424       .  A
C753       Br759   1.935       .  S
C754        C755   1.418       .  A
C755        C756   1.401       .  A
C755       Br764   1.935       .  S
C756       Br760   1.932       .  S
C765        C766   1.418       .  A
C765        C770   1.425       .  A
C766        C767   1.404       .  A
C766       Br778   1.934       .  S
C767        C768   1.408       .  A
C767       Br782   1.932       .  S
C768        C769   1.406       .  A
C768        C771   1.485       .  S
C769        C770   1.410       .  A
C769       Br777   1.931       .  S
C770       Br781   1.936       .  S
C771        C772   1.406       .  A
C771        C776   1.407       .  A
C772        C773   1.402       .  A
C772       Br783   1.931       .  S
C773        C774   1.419       .  A
C773       Br779   1.936       .  S
C774        C775   1.423       .  A
C775        C776   1.412       .  A
C775       Br784   1.934       .  S
C776       Br780   1.930       .  S
C785        C786   1.419       .  A
C785        C790   1.423       .  A
C786        C787   1.402       .  A
C786       Br798   1.936       .  S
C787        C788   1.406       .  A
C787       Br802   1.931       .  S
C788        C789   1.407       .  A
C788        C791   1.485       .  S
C789        C790   1.411       .  A
C789       Br797   1.930       .  S
C790       Br801   1.934       .  S
C791        C792   1.406       .  A
C791        C796   1.408       .  A
C792        C793   1.411       .  A
C792       Br803   1.931       .  S
C793        C794   1.425       .  A
C793       Br799   1.937       .  S
C794        C795   1.417       .  A
C795        C796   1.403       .  A
C795       Br804   1.934       .  S
C796       Br800   1.932       .  S
C805        C807   1.553       .  S
C805        C809   1.552       .  S
C805        C808   1.539       .  S
C805       C1062   1.541       .  S
C806        C810   1.542   1_556  S
C806        C812   1.527   1_556  S
C806        C811   1.535   1_556  S
C806       C1042   1.544       .  S
C807        C815   1.390       .  A
C807        C810   1.398       .  A
C808        C819   1.382       .  A
C808        C811   1.394       .  A
C809        C823   1.390       .  A
C809        C812   1.395       .  A
C810        C813   1.375   1_554  A
C811        C817   1.374   1_554  A
C812        C820   1.368   1_554  A
C813        N814   1.351   1_556  A
C813        H826   1.082       .  S
N814        C815   1.357       .  A
N814        C906   1.429       .  S
C815        H816   1.083       .  S
C817        N818   1.354   1_556  A
C817        H827   1.083       .  S
N818        C819   1.355       .  A
N818        C914   1.426       .  S
C819        H825   1.082       .  S
C820        N821   1.350   1_556  A
C820        H822   1.083       .  S
N821        C823   1.358       .  A
N821        C940   1.426       .  S
C823        H824   1.082       .  S
C828        C830   1.535       .  S
C828        C832   1.542       .  S
C828        C831   1.527       .  S
C828       C1053   1.544       .  S
C829        C833   1.539       .  S
C829        C835   1.553       .  S
C829        C834   1.551       .  S
C829       C1033   1.540       .  S
C830        C838   1.373       .  A
C830        C833   1.394       .  A
C831        C842   1.369       .  A
C831        C834   1.395       .  A
C832        C846   1.374       .  A
C832        C835   1.398       .  A
C833        C836   1.383       .  A
C834        C840   1.389       .  A
C835        C843   1.390       .  A
C836        N837   1.356       .  A
C836        H849   1.082       .  S
N837        C838   1.353       .  A
N837        C986   1.426       .  S
C838        H839   1.083       .  S
C840        N841   1.358       .  A
C840        H850   1.082       .  S
N841        C842   1.351       .  A
N841        C950   1.427       .  S
C842        H848   1.083       .  S
C843        N844   1.357       .  A
C843        H845   1.083       .  S
N844        C846   1.351       .  A
N844        C961   1.429       .  S
C846        H847   1.082       .  S
C851        C853   1.521   1_554  S
C851        C855   1.540   1_554  S
C851        C854   1.541   1_554  S
C851       C1013   1.543       .  S
C852        C856   1.533       .  S
C852        C858   1.556       .  S
C852        C857   1.557       .  S
C852       C1002   1.541       .  S
C853        C861   1.367   1_556  A
C853        C856   1.388       .  A
C854        C865   1.376   1_556  A
C854        C857   1.400       .  A
C855        C869   1.374   1_556  A
C855        C858   1.401       .  A
C856        C859   1.382       .  A
C857        C863   1.391       .  A
C858        C866   1.390       .  A
C859        N860   1.356       .  A
C859        H872   1.083       .  S
N860        C861   1.352   1_556  A
N860        C938   1.422       .  S
C861        H862   1.082       .  S
C863        N864   1.356       .  A
C863        H873   1.082       .  S
N864        C865   1.350   1_556  A
N864        C902   1.430       .  S
C865        H871   1.081       .  S
C866        N867   1.358       .  A
C866        H868   1.082       .  S
N867        C869   1.352   1_556  A
N867        C913   1.431       .  S
C869        H870   1.082       .  S
C874        C876   1.557       .  S
C874        C878   1.532       .  S
C874        C877   1.555       .  S
C874       C1022   1.541       .  S
C875        C879   1.542       .  S
C875        C881   1.521       .  S
C875        C880   1.541       .  S
C875        C993   1.544       .  S
C876        C884   1.391       .  A
C876        C879   1.400       .  A
C877        C888   1.390       .  A
C877        C880   1.402       .  A
C878        C892   1.382       .  A
C878        C881   1.388       .  A
C879        C882   1.376       .  A
C880        C886   1.375       .  A
C881        C889   1.367       .  A
C882        N883   1.350       .  A
C882        H895   1.081       .  S
N883        C884   1.356       .  A
N883        C954   1.430       .  S
C884        H885   1.082       .  S
C886        N887   1.352       .  A
C886        H896   1.082       .  S
N887        C888   1.358       .  A
N887        C962   1.431       .  S
C888        H894   1.082       .  S
C889        N890   1.352       .  A
C889        H891   1.082       .  S
N890        C892   1.355       .  A
N890        C988   1.421       .  S
C892        H893   1.082       .  S
O897       Mg899   2.131       .  S
C898        H937   1.081       .  S
C898        O911   1.235       .  S
C898        O935   1.268       .  A
Mg899       O943   2.279   1_554  S
O900       Mg925   2.151       .  S
O901        C932   1.267       .  A
O901       Mg925   2.284       .  S
C902        O904   1.270       .  A
C902        O916   1.279       .  A
O903        C931   1.267       .  A
O904       Mg936   2.263       .  S
Mg905       O911   2.133       .  S
Mg905       O907   2.272   1_556  S
C906        O944   1.274       .  A
C906        O912   1.278       .  A
O907        C914   1.270       .  A
C909        O924   1.270   1_545  A
O910        C933   1.268       .  A
O911       Mg925   2.168   1_556  S
O912       Mg942   2.316   1_554  S
C913        O926   1.277       .  A
C913        O918   1.273       .  A
C914        O941   1.273       .  A
Mg915       O922   2.142       .  S
Mg915       O916   2.324   1_554  S
O917        C921   1.270       .  A
O918       Mg925   2.293   1_556  S
O919        C938   1.269       .  A
O920        C940   1.275       .  A
O920       Mg936   2.298   1_554  S
O922       Mg936   2.169   1_554  S
O922        C933   1.235       .  S
O923       Mg942   2.164       .  S
O924       Mg936   2.300       .  S
Mg925       O941   2.280       .  S
O928       Mg936   2.129       .  S
H930        C933   1.081       .  S
C938        O943   1.272       .  A
O939        C940   1.270       .  A
O945       Mg947   2.131       .  S
C946        H985   1.081       .  S
C946        O959   1.236       .  S
C946        O983   1.270       .  A
Mg947       O991   2.272       .  S
O948       Mg973   2.165       .  S
O949        C980   1.268       .  A
O949       Mg973   2.290       .  S
C950        O952   1.270       .  A
C950        O964   1.275       .  A
O951        C979   1.267       .  A
O952       Mg984   2.266       .  S
Mg953       O959   2.150       .  S
Mg953       O955   2.294       .  S
C954        O992   1.270       .  A
C954        O960   1.279       .  A
O955        C962   1.273       .  A
C957        O972   1.268   1_455  A
O958        C981   1.267       .  A
O959       Mg973   2.163       .  S
O960       Mg990   2.324       .  S
C961        O974   1.274       .  A
C961        O966   1.278       .  A
C962        O989   1.277       .  A
Mg963       O970   2.128       .  S
Mg963       O964   2.297       .  S
O965        C969   1.270   1_565  A
O966       Mg973   2.316       .  S
O967        C986   1.273       .  A
O968        C988   1.272       .  A
O968       Mg984   2.280       .  S
O970       Mg984   2.172       .  S
O970        C981   1.235       .  S
O971       Mg990   2.141       .  S
O972       Mg984   2.290       .  S
Mg973       O989   2.301       .  S
O976       Mg984   2.133       .  S
H978        C981   1.081       .  S
C986        O991   1.270       .  A
O987        C988   1.269       .  A
C993        C994   1.418       .  A
C993        C998   1.422       .  A
C994        C995   1.403       .  A
C994      Br1006   1.936       .  S
C995        C996   1.407       .  A
C995      Br1010   1.931       .  S
C996        C997   1.407       .  A
C996        C999   1.486       .  S
C997        C998   1.412       .  A
C997      Br1005   1.929       .  S
C998      Br1009   1.934       .  S
C999       C1000   1.406       .  A
C999       C1004   1.407       .  A
C1000      C1001   1.402       .  A
C1000     Br1011   1.932       .  S
C1001      C1002   1.418       .  A
C1001     Br1007   1.935       .  S
C1002      C1003   1.424       .  A
C1003      C1004   1.413       .  A
C1003     Br1012   1.935       .  S
C1004     Br1008   1.930       .  S
C1013      C1014   1.418       .  A
C1013      C1018   1.422       .  A
C1014      C1015   1.403       .  A
C1014     Br1026   1.936       .  S
C1015      C1016   1.407       .  A
C1015     Br1030   1.931       .  S
C1016      C1017   1.407       .  A
C1016      C1019   1.485       .  S
C1017      C1018   1.411       .  A
C1017     Br1025   1.929       .  S
C1018     Br1029   1.934       .  S
C1019      C1020   1.408       .  A
C1019      C1024   1.406       .  A
C1020      C1021   1.413       .  A
C1020     Br1031   1.930       .  S
C1021      C1022   1.424       .  A
C1021     Br1027   1.935       .  S
C1022      C1023   1.418       .  A
C1023      C1024   1.401       .  A
C1023     Br1032   1.935       .  S
C1024     Br1028   1.932       .  S
C1033      C1034   1.418       .  A
C1033      C1038   1.425       .  A
C1034      C1035   1.404       .  A
C1034     Br1046   1.934       .  S
C1035      C1036   1.408       .  A
C1035     Br1050   1.932       .  S
C1036      C1037   1.406       .  A
C1036      C1039   1.485       .  S
C1037      C1038   1.410       .  A
C1037     Br1045   1.931       .  S
C1038     Br1049   1.936       .  S
C1039      C1040   1.406       .  A
C1039      C1044   1.407       .  A
C1040      C1041   1.402       .  A
C1040     Br1051   1.931       .  S
C1041      C1042   1.419       .  A
C1041     Br1047   1.936       .  S
C1042      C1043   1.423       .  A
C1043      C1044   1.412       .  A
C1043     Br1052   1.934       .  S
C1044     Br1048   1.930       .  S
C1053      C1054   1.419       .  A
C1053      C1058   1.423       .  A
C1054      C1055   1.402       .  A
C1054     Br1066   1.936       .  S
C1055      C1056   1.406       .  A
C1055     Br1070   1.931       .  S
C1056      C1057   1.407       .  A
C1056      C1059   1.485       .  S
C1057      C1058   1.411       .  A
C1057     Br1065   1.930       .  S
C1058     Br1069   1.934       .  S
C1059      C1060   1.406       .  A
C1059      C1064   1.408       .  A
C1060      C1061   1.411       .  A
C1060     Br1071   1.931       .  S
C1061      C1062   1.425       .  A
C1061     Br1067   1.937       .  S
C1062      C1063   1.417       .  A
C1063      C1064   1.403       .  A
C1063     Br1072   1.934       .  S
C1064     Br1068   1.932       .  S
