geometry optimzed in LAMMPS
_audit_creation_date              2020-12-01 
_audit_creation_method            'lammps2cif' 
_symmetry_space_group_name_H-M    'P1' 
_symmetry_Int_Tables_number       1 
_symmetry_cell_setting            triclinic 
loop_ 
_symmetry_equiv_pos_as_xyz 
  x,y,z 
_cell_length_a                    65.94866099 
_cell_length_b                    65.67140977881625 
_cell_length_c                    65.63317199862288 
_cell_angle_alpha                 90.63400722811858 
_cell_angle_beta                  90.15644535472946 
_cell_angle_gamma                 90.60181717052262 
loop_ 
_atom_site_label 
_atom_site_type_symbol 
_atom_site_fract_x 
_atom_site_fract_y 
_atom_site_fract_z 
_atom_site_charge 
N1          N  0.79176766  0.23007153  0.01387808    -0.02600
C2          C  0.80259434  0.22515029  0.03090316     0.00000
C3          C  0.82289770  0.22979429  0.02831030    -0.22900
C4          C  0.82493001  0.23744785  0.00918294    -0.23100
C5          C  0.80588704  0.23725415  0.00041108    -0.00100
H6          H  0.83514784  0.22698993  0.03888667     0.13700
H7          H  0.83913709  0.24093833  0.00169840     0.13700
N8          N  0.77042542  0.23352652  0.01330075    -0.02600
C9          C  0.75878901  0.24027084  0.02921285     0.00000
C10         C  0.73843555  0.23772151  0.02477111    -0.22900
C11         C  0.73721247  0.22952820  0.00559592    -0.23100
C12         C  0.75681103  0.22717244  0.99872354    -0.00100
H13         H  0.72575664  0.24203554  0.03426430     0.13700
H14         H  0.72341276  0.22672280  0.99699801     0.13700
N15         N  0.77594601  0.97595783  0.24395584    -0.02600
C16         C  0.77983685  0.95840023  0.23324764     0.00000
C17         C  0.78012323  0.96190564  0.21254127    -0.22900
C18         C  0.77623763  0.98198377  0.20999038    -0.23100
C19         C  0.77396389  0.99039756  0.22916484    -0.00100
H20         H  0.78415296  0.95125324  0.20055705     0.13700
H21         H  0.77680000  0.99006020  0.19570375     0.13700
N22         N  0.77053638  0.97758868  0.26509449    -0.02600
C23         C  0.76057453  0.96331043  0.27661631     0.00000
C24         C  0.75696293  0.97047951  0.29607309    -0.22900
C25         C  0.76492412  0.98954353  0.29720521    -0.23100
C26         C  0.77294469  0.99378486  0.27832488    -0.00100
H27         H  0.74939330  0.96247712  0.30827131     0.13700
H28         H  0.76460004  0.99959362  0.31038987     0.13700
O29         O  0.77452258  0.27458467  0.33986500    -0.70900
O30         O  0.77505801  0.27410661  0.28203276    -0.71100
O31         O  0.77729709  0.24548706  0.31120566    -0.71000
O32         O  0.77253473  0.30316920  0.31069581    -0.71000
O33         O  0.80536682  0.30606184  0.31139154    -0.71000
O34         O  0.81013965  0.24865207  0.31074428    -0.71000
O35         O  0.80786696  0.27767268  0.28216610    -0.70900
O36         O  0.80744011  0.27679183  0.33999416    -0.71100
V37         V  0.77548368  0.27441421  0.31095222     1.35200
V38         V  0.80705228  0.27729886  0.31113061     1.35200
C39         C  0.79099697  0.27474710  0.34968778     0.78300
C40         C  0.79143777  0.27619774  0.27227827     0.78400
C41         C  0.79458635  0.23730491  0.31121324     0.78200
C42         C  0.78821697  0.31440638  0.31039205     0.78200
O43         O  0.77391920  0.30896357  0.21534883    -0.70900
O44         O  0.77307071  0.25146983  0.20898362    -0.71100
O45         O  0.77439697  0.27741322  0.24058609    -0.71000
O46         O  0.77251977  0.28302116  0.18315054    -0.71000
O47         O  0.80532473  0.28162719  0.18185433    -0.71000
O48         O  0.80733272  0.27877212  0.23979665    -0.71000
O49         O  0.80601930  0.25121579  0.20911350    -0.70900
O50         O  0.80675852  0.30927995  0.21275989    -0.71100
V51         V  0.77413675  0.28024813  0.21189659     1.35200
V52         V  0.80575313  0.28024779  0.21084097     1.35200
C53         C  0.79045444  0.31887525  0.21563357     0.78300
C54         C  0.78935408  0.24148899  0.20867940     0.78400
C55         C  0.79112214  0.27738916  0.24998811     0.78200
C56         C  0.78852554  0.28267678  0.17256568     0.78200
O57         O  0.76654105  0.17988318  0.18330420    -0.70900
O58         O  0.77447148  0.18203176  0.24087635    -0.71100
O59         O  0.77187422  0.20992637  0.21096328    -0.71000
O60         O  0.76889146  0.15240979  0.21358037    -0.71000
O61         O  0.80145136  0.15058545  0.20895305    -0.71000
O62         O  0.80452123  0.20857186  0.20686923    -0.71000
O63         O  0.80707050  0.18047822  0.23643690    -0.70900
O64         O  0.79912049  0.17832999  0.17922693    -0.71100
V65         V  0.77107859  0.18108224  0.21204132     1.35200
V66         V  0.80240166  0.17956190  0.20789149     1.35200
C67         C  0.78158738  0.17878039  0.17141152     0.78300
C68         C  0.79211989  0.18094362  0.24840125     0.78400
C69         C  0.78862964  0.21909258  0.20864098     0.78200
C70         C  0.78468319  0.14177820  0.21244328     0.78200
O71         O  0.78711937  0.14609259  0.30885065    -0.70900
O72         O  0.78132613  0.20356427  0.31237861    -0.71100
O73         O  0.78037939  0.17614062  0.28218353    -0.71000
O74         O  0.78795914  0.17393016  0.33952267    -0.71000
O75         O  0.82057902  0.17601293  0.33569920    -0.71000
O76         O  0.81275110  0.18118084  0.27824084    -0.71000
O77         O  0.81403027  0.20716895  0.30993930    -0.70900
O78         O  0.81937474  0.14997241  0.30315613    -0.71100
V79         V  0.78485255  0.17492196  0.31074530     1.35200
V80         V  0.81608655  0.17848487  0.30693314     1.35200
C81         C  0.80406128  0.13834986  0.30443004     0.78300
C82         C  0.79671006  0.21512585  0.31134734     0.78400
C83         C  0.79520031  0.17952350  0.27050371     0.78200
C84         C  0.80544787  0.17475669  0.34752130     0.78200
N85         N  0.80503976  0.22399773  0.51058555    -0.02600
C86         C  0.81491613  0.22914343  0.52838096     0.00000
C87         C  0.82476032  0.24769792  0.52664024    -0.22900
C88         C  0.82066860  0.25474143  0.50771284    -0.23100
C89         C  0.80873750  0.24019415  0.49800960    -0.00100
H90         H  0.83376846  0.25549503  0.53818796     0.13700
H91         H  0.82615813  0.26894056  0.50144419     0.13700
N92         N  0.78829515  0.21023703  0.50865893    -0.02600
C93         C  0.78235503  0.20025833  0.49108911     0.00000
C94         C  0.76131354  0.19964308  0.48996921    -0.22900
C95         C  0.75402785  0.20763894  0.50766268    -0.23100
C96         C  0.77064150  0.21365145  0.51893331    -0.00100
H97         H  0.75203508  0.19326534  0.47782202     0.13700
H98         H  0.73832474  0.20779249  0.51241281     0.13700
O99         O  0.82133480  0.80692322  0.25020988    -0.70900
O100        O  0.81977782  0.74919837  0.25043561    -0.71100
O101        O  0.79195544  0.77863867  0.25011316    -0.71000
O102        O  0.84928572  0.77767010  0.25049633    -0.71000
O103        O  0.84935831  0.77897541  0.28354020    -0.71000
O104        O  0.79177803  0.77872786  0.28324790    -0.71000
O105        O  0.82028292  0.74984171  0.28355350    -0.70900
O106        O  0.82056736  0.80774515  0.28325561    -0.71100
V107        V  0.82061931  0.77812894  0.25097666     1.35200
V108        V  0.82053996  0.77878094  0.28278091     1.35200
C109        C  0.82069072  0.81721431  0.26659196     0.78300
C110        C  0.81971868  0.73969160  0.26705896     0.78400
C111        C  0.78213816  0.77884113  0.26658818     0.78200
C112        C  0.85916650  0.77833271  0.26701703     0.78200
O113        O  0.69318661  0.77531725  0.24869095    -0.70900
O114        O  0.75053673  0.77860371  0.24953830    -0.71100
O115        O  0.72309247  0.74849793  0.24968227    -0.71000
O116        O  0.72080438  0.80588947  0.24822636    -0.71000
O117        O  0.72102289  0.80729452  0.28125642    -0.71000
O118        O  0.72187244  0.74940608  0.28279073    -0.71000
O119        O  0.75007243  0.77905609  0.28267163    -0.70900
O120        O  0.69254711  0.77733430  0.28174258    -0.71100
V121        V  0.72184478  0.77718219  0.24969963     1.35200
V122        V  0.72135304  0.77832457  0.28150216     1.35200
C123        C  0.68315016  0.77498074  0.26507057     0.78300
C124        C  0.76003549  0.77893237  0.26627422     0.78400
C125        C  0.72275637  0.73918898  0.26637178     0.78200
C126        C  0.72130917  0.81647728  0.26438251     0.78200
O127        O  0.84889979  0.67990610  0.25145082    -0.70900
O128        O  0.79135143  0.67628658  0.25158815    -0.71100
O129        O  0.81894270  0.70697260  0.25093238    -0.71000
O130        O  0.82161477  0.64897828  0.25237801    -0.71000
O131        O  0.82098105  0.65054717  0.28547788    -0.71000
O132        O  0.81959092  0.70808146  0.28403627    -0.71000
O133        O  0.79120080  0.67806917  0.28465089    -0.70900
O134        O  0.84927731  0.68052600  0.28451102    -0.71100
V135        V  0.82019178  0.67802128  0.25223310     1.35200
V136        V  0.82027516  0.67924386  0.28402275     1.35200
C137        C  0.85894710  0.68119503  0.26785448     0.78300
C138        C  0.78139525  0.67671557  0.26803600     0.78400
C139        C  0.81929081  0.71735462  0.26730187     0.78200
C140        C  0.82128285  0.63996930  0.26931490     0.78200
O141        O  0.71895929  0.64969069  0.24870318    -0.70900
O142        O  0.72273000  0.70723943  0.24964627    -0.71100
O143        O  0.74973669  0.67698789  0.25053230    -0.71000
O144        O  0.69225085  0.68031099  0.24758345    -0.71000
O145        O  0.69071224  0.68151543  0.28062577    -0.71000
O146        O  0.74835439  0.67603803  0.28356487    -0.71000
O147        O  0.72215217  0.70720573  0.28277275    -0.70900
O148        O  0.71640586  0.64951410  0.28160118    -0.71100
V149        V  0.72092878  0.67847556  0.24978526     1.35200
V150        V  0.71945715  0.67843123  0.28153010     1.35200
C151        C  0.71674717  0.63968068  0.26489802     0.78300
C152        C  0.72275279  0.71699434  0.26633928     0.78400
C153        C  0.75892112  0.67635575  0.26745735     0.78200
C154        C  0.68180228  0.68257003  0.26354372     0.78200
N155        N  0.77592990  0.47931848  0.27665290    -0.02600
C156        C  0.76775490  0.46356218  0.28748740     0.00000
C157        C  0.76597100  0.46909494  0.30769064    -0.22900
C158        C  0.77467375  0.48784005  0.30993426    -0.23100
C159        C  0.78097366  0.49411069  0.29080972    -0.00100
H160        H  0.76192927  0.45914947  0.32012988     0.13700
H161        H  0.77734299  0.49507042  0.32456056     0.13700
N162        N  0.77191579  0.48261679  0.25555808    -0.02600
C163        C  0.76500010  0.50006129  0.24685570     0.00000
C164        C  0.76422881  0.49798429  0.22590183    -0.22900
C165        C  0.77018515  0.47866970  0.22130644    -0.23100
C166        C  0.77450365  0.46938614  0.23953027    -0.00100
H167        H  0.75895435  0.50913257  0.21513437     0.13700
H168        H  0.77036261  0.47170181  0.20628327     0.13700
N169        N  0.02418393  0.74414965  0.26900083    -0.02600
C170        C  0.01000806  0.75793496  0.27520478     0.00000
C171        C  0.01786422  0.77748139  0.27447472    -0.22900
C172        C  0.03684048  0.77616093  0.26661523    -0.23100
C173        C  0.04069651  0.75573434  0.26358210    -0.00100
H174        H  0.00953480  0.79147597  0.27654223     0.13700
H175        H  0.04628500  0.78896261  0.26229814     0.13700
N176        N  0.02467928  0.72311591  0.27442992    -0.02600
C177        C  0.04110960  0.71303634  0.28192748     0.00000
C178        C  0.03733147  0.69237728  0.28274014    -0.22900
C179        C  0.01793658  0.68933050  0.27608488    -0.23100
C180        C  0.01024037  0.70817510  0.27131437    -0.00100
H181        H  0.04738535  0.68082600  0.28846678     0.13700
H182        H  0.00974211  0.67495587  0.27600048     0.13700
N183        N  0.25491483  0.72657149  0.00583086    -0.02600
C184        C  0.24550221  0.73513752  0.98944039     0.00000
C185        C  0.22547428  0.73915003  0.99390807    -0.22900
C186        C  0.22209503  0.73274718  0.01327856    -0.23100
C187        C  0.24018392  0.72534030  0.02055988    -0.00100
H188        H  0.21463345  0.74689055  0.98440023     0.13700
H189        H  0.20833415  0.73508329  0.02191876     0.13700
N190        N  0.27407579  0.71656856  0.00552288    -0.02600
C191        C  0.28245947  0.70592463  0.98958953     0.00000
C192        C  0.30165485  0.69936544  0.99451898    -0.22900
C193        C  0.30551483  0.70581461  0.01391013    -0.23100
C194        C  0.28860717  0.71616097  0.02044252    -0.00100
H195        H  0.31175619  0.69060108  0.98494533     0.13700
H196        H  0.31907667  0.70280661  0.02266211     0.13700
O197        O  0.34904179  0.71405788  0.30474194    -0.70900
O198        O  0.29130159  0.71728390  0.30635167    -0.71100
O199        O  0.31965808  0.71834708  0.27688042    -0.71000
O200        O  0.32080407  0.71254372  0.33415081    -0.71000
O201        O  0.32223514  0.74532169  0.33807839    -0.71000
O202        O  0.32257848  0.75120963  0.28018927    -0.71000
O203        O  0.29375284  0.75021897  0.30915084    -0.70900
O204        O  0.35105808  0.74677716  0.30921196    -0.71100
V205        V  0.32023192  0.71620376  0.30559792     1.35200
V206        V  0.32237213  0.74775374  0.30909321     1.35200
C207        C  0.35992005  0.72996945  0.30669549     0.78300
C208        C  0.28274624  0.73440531  0.30799939     0.78400
C209        C  0.32110706  0.73561365  0.26872594     0.78200
C210        C  0.32153300  0.72781368  0.34601398     0.78200
O211        O  0.22273383  0.72359807  0.34077346    -0.70900
O212        O  0.21847226  0.72244283  0.28297360    -0.71100
O213        O  0.24930049  0.72045487  0.30980050    -0.71000
O214        O  0.19213534  0.72540595  0.31419445    -0.71000
O215        O  0.19501071  0.75837097  0.31368713    -0.71000
O216        O  0.25230369  0.75343172  0.30921302    -0.71000
O217        O  0.22128382  0.75543239  0.28248181    -0.70900
O218        O  0.22616655  0.75655673  0.34028173    -0.71100
V219        V  0.22071574  0.72362593  0.31189792     1.35200
V220        V  0.22362163  0.75531030  0.31141322     1.35200
C221        C  0.22521177  0.74026672  0.35031542     0.78300
C222        C  0.21922002  0.73873898  0.27287737     0.78400
C223        C  0.26055092  0.73611647  0.30892493     0.78200
C224        C  0.18381367  0.74265529  0.31475698     0.78200
O225        O  0.18990485  0.71981407  0.21110229    -0.70900
O226        O  0.24769041  0.72090844  0.21282082    -0.71100
O227        O  0.21802109  0.72131525  0.24097018    -0.71000
O228        O  0.22005137  0.71920361  0.18320816    -0.71000
O229        O  0.21923006  0.75220762  0.18206089    -0.71000
O230        O  0.21844112  0.75438476  0.24019742    -0.71000
O231        O  0.24744810  0.75395940  0.21144419    -0.70900
O232        O  0.18988763  0.75279573  0.21071244    -0.71100
V233        V  0.21884015  0.72095906  0.21202433     1.35200
V234        V  0.21866917  0.75269980  0.21114157     1.35200
C235        C  0.17996106  0.73621213  0.21078540     0.78300
C236        C  0.25735753  0.73761888  0.21191914     0.78400
C237        C  0.21834183  0.73816499  0.25045460     0.78200
C238        C  0.22062793  0.73527027  0.17278599     0.78200
O239        O  0.34695872  0.75533080  0.20607932    -0.70900
O240        O  0.28934773  0.75469509  0.21097217    -0.71100
O241        O  0.32053718  0.75403118  0.23748116    -0.71000
O242        O  0.31536045  0.75610356  0.17962669    -0.71000
O243        O  0.31585783  0.72305928  0.17814002    -0.71000
O244        O  0.32002364  0.72096718  0.23566780    -0.71000
O245        O  0.28931787  0.72163059  0.20904729    -0.70900
O246        O  0.34668589  0.72232798  0.20475820    -0.71100
V247        V  0.31810375  0.75443009  0.20849503     1.35200
V248        V  0.31801253  0.72267357  0.20693340     1.35200
C249        C  0.35671279  0.73885512  0.20475425     0.78300
C250        C  0.27957252  0.73801038  0.21076878     0.78400
C251        C  0.32069198  0.73705453  0.24640259     0.78200
C252        C  0.31449700  0.73986838  0.16907321     0.78200
N253        N  0.51799791  0.74259902  0.25568639    -0.02600
C254        C  0.53269605  0.75675849  0.25130706     0.00000
C255        C  0.52519019  0.77624076  0.25305255    -0.22900
C256        C  0.50562313  0.77450540  0.25932637    -0.23100
C257        C  0.50153863  0.75396949  0.26116477    -0.00100
H258        H  0.53376372  0.79034329  0.25200958     0.13700
H259        H  0.49576902  0.78697832  0.26338832     0.13700
N260        N  0.51729991  0.72178091  0.24884849    -0.02600
C261        C  0.53183015  0.70700495  0.25062221     0.00000
C262        C  0.52421148  0.68826528  0.24455406    -0.22900
C263        C  0.50471792  0.69110595  0.23849821    -0.23100
C264        C  0.50072146  0.71157424  0.24092178    -0.00100
H265        H  0.53243521  0.67410219  0.24363036     0.13700
H266        H  0.49464828  0.67952348  0.23218614     0.13700
O267        O  0.26818591  0.77299543  0.83687778    -0.70900
O268        O  0.26885659  0.76799294  0.77927352    -0.71100
O269        O  0.26689831  0.74158447  0.80986451    -0.71000
O270        O  0.27026260  0.79943452  0.80539424    -0.71000
O271        O  0.30306105  0.79810804  0.80754582    -0.71000
O272        O  0.29977160  0.73995532  0.80947876    -0.71000
O273        O  0.30181098  0.76777602  0.77966235    -0.70900
O274        O  0.30089937  0.77011182  0.83781556    -0.71100
V275        V  0.26921081  0.77050764  0.80800331     1.35200
V276        V  0.30077532  0.76905237  0.80869550     1.35200
C277        C  0.28428776  0.77175071  0.84731405     0.78300
C278        C  0.28537865  0.76726096  0.76965533     0.78400
C279        C  0.28274352  0.73085796  0.80957867     0.78200
C280        C  0.28725260  0.80860105  0.80497626     0.78200
O281        O  0.29914443  0.76703016  0.67906021    -0.70900
O282        O  0.30128957  0.76727231  0.73708770    -0.71100
O283        O  0.30219418  0.73866310  0.70760025    -0.71000
O284        O  0.29838196  0.79587831  0.70888726    -0.71000
O285        O  0.26551911  0.79374613  0.71012359    -0.71000
O286        O  0.26931782  0.73586658  0.70833896    -0.71000
O287        O  0.26841477  0.76464882  0.73797820    -0.70900
O288        O  0.26630363  0.76465968  0.68035414    -0.71100
V289        V  0.29959527  0.76721864  0.70810490     1.35200
V290        V  0.26801173  0.76482382  0.70912902     1.35200
C291        C  0.28234958  0.76473659  0.66989423     0.78300
C292        C  0.28512249  0.76621239  0.74735159     0.78400
C293        C  0.28650355  0.72753065  0.70760407     0.78200
C294        C  0.28149587  0.80457405  0.71081910     0.78200
O295        O  0.28946897  0.66714326  0.83759949    -0.70900
O296        O  0.30001319  0.66922018  0.78073440    -0.71100
O297        O  0.29679321  0.69735726  0.81098177    -0.71000
O298        O  0.29258317  0.63940150  0.80726438    -0.71000
O299        O  0.26025614  0.64163363  0.80183265    -0.71000
O300        O  0.26448139  0.69953309  0.80502129    -0.71000
O301        O  0.26761028  0.67109479  0.77503380    -0.70900
O302        O  0.25719621  0.66979274  0.83179386    -0.71100
V303        V  0.29408978  0.66835661  0.80908626     1.35200
V304        V  0.26303336  0.67051282  0.80352370     1.35200
C305        C  0.27157705  0.66816306  0.84441137     0.78300
C306        C  0.28547283  0.66987280  0.76820376     0.78400
C307        C  0.28129481  0.70833871  0.80865397     0.78200
C308        C  0.27574399  0.63058870  0.80364133     0.78200
O309        O  0.31329195  0.64068794  0.70937900    -0.70900
O310        O  0.30593298  0.69786896  0.70985620    -0.71100
O311        O  0.30639527  0.66911424  0.73841179    -0.71000
O312        O  0.31226038  0.67040306  0.68046205    -0.71000
O313        O  0.28014557  0.66335052  0.67725288    -0.71000
O314        O  0.27370294  0.66705246  0.73441708    -0.71000
O315        O  0.27364649  0.69364818  0.70418147    -0.70900
O316        O  0.28059034  0.63639035  0.70838611    -0.71100
V317        V  0.30890712  0.66932430  0.70938050     1.35200
V318        V  0.27767914  0.66507345  0.70600412     1.35200
C319        C  0.29808831  0.62886751  0.71033688     0.78300
C320        C  0.28865771  0.70545926  0.70711412     0.78400
C321        C  0.28880753  0.66871273  0.74615186     0.78200
C322        C  0.29689804  0.66779555  0.66904117     0.78200
N323        N  0.27916385  0.72388576  0.50656090    -0.02600
C324        C  0.28855008  0.73059509  0.48922107     0.00000
C325        C  0.28970146  0.75168597  0.48943338    -0.22900
C326        C  0.28228291  0.75821119  0.50767274    -0.23100
C327        C  0.27640550  0.74106559  0.51806434    -0.00100
H328        H  0.29682474  0.76128211  0.47815637     0.13700
H329        H  0.28322698  0.77362045  0.51365559     0.13700
N330        N  0.26555129  0.70693032  0.50766433    -0.02600
C331        C  0.26214824  0.69472760  0.52413760     0.00000
C332        C  0.24561477  0.68208833  0.52069920    -0.22900
C333        C  0.23774292  0.68712012  0.50225970    -0.23100
C334        C  0.24991572  0.70239301  0.49444950    -0.00100
H335        H  0.23916589  0.67119958  0.53118808     0.13700
H336        H  0.22403614  0.68075511  0.49555365     0.13700
O337        O  0.83252940  0.24123191  0.83741246    -0.70900
O338        O  0.83722041  0.23323868  0.77999837    -0.71100
O339        O  0.80655739  0.23498755  0.80681420    -0.71000
O340        O  0.86377374  0.23968052  0.81060459    -0.71000
O341        O  0.86572607  0.20702878  0.81488422    -0.71000
O342        O  0.80847340  0.20231255  0.81139772    -0.71000
O343        O  0.83881300  0.20055822  0.78450541    -0.70900
O344        O  0.83497628  0.20862817  0.84179680    -0.71100
V345        V  0.83514033  0.23666604  0.80880741     1.35200
V346        V  0.83704181  0.20528496  0.81306679     1.35200
C347        C  0.83232525  0.22619765  0.84933628     0.78300
C348        C  0.83834408  0.21545429  0.77248680     0.78400
C349        C  0.79782698  0.21791786  0.80868335     0.78200
C350        C  0.87455742  0.22410718  0.81315433     0.78200
O351        O  0.73909017  0.19718201  0.83701197    -0.70900
O352        O  0.73764529  0.19821689  0.77908374    -0.71100
O353        O  0.76687967  0.19932791  0.80768543    -0.71000
O354        O  0.70933000  0.19612593  0.80834852    -0.71000
O355        O  0.70808709  0.22916677  0.80938073    -0.71000
O356        O  0.76530742  0.23238922  0.80879752    -0.71000
O357        O  0.73650592  0.23128051  0.78015345    -0.70900
O358        O  0.73718835  0.23019449  0.83803949    -0.71100
V359        V  0.73812968  0.19833590  0.80807438     1.35200
V360        V  0.73673217  0.23009338  0.80907804     1.35200
C361        C  0.73891785  0.21354717  0.84735214     0.78300
C362        C  0.73728555  0.21496440  0.76978394     0.78400
C363        C  0.77579690  0.21644353  0.80823759     0.78200
C364        C  0.69892036  0.21219324  0.80864741     0.78200
O365        O  0.86972678  0.21878617  0.71075905    -0.70900
O366        O  0.81250949  0.22527729  0.70838016    -0.71100
O367        O  0.84060374  0.22670933  0.73814168    -0.71000
O368        O  0.84173881  0.21724798  0.68079060    -0.71000
O369        O  0.83709464  0.18485789  0.68553749    -0.71000
O370        O  0.83687919  0.19420056  0.74294784    -0.71000
O371        O  0.80835889  0.19284776  0.71334988    -0.70900
O372        O  0.86576792  0.18633777  0.71549440    -0.71100
V373        V  0.84107897  0.22134970  0.70955811     1.35200
V374        V  0.83712365  0.19017697  0.71419408     1.35200
C375        C  0.87753488  0.20162027  0.71411138     0.78300
C376        C  0.80067324  0.21019661  0.71062068     0.78400
C377        C  0.83870356  0.21201290  0.75030195     0.78200
C378        C  0.83919052  0.19953143  0.67335722     0.78200
O379        O  0.74283296  0.23453282  0.68072984    -0.70900
O380        O  0.74093933  0.23229133  0.73847538    -0.71100
O381        O  0.77064103  0.23026689  0.71021647    -0.71000
O382        O  0.71313398  0.23633659  0.70910536    -0.71000
O383        O  0.70956693  0.20352617  0.70635815    -0.71000
O384        O  0.76678329  0.19737261  0.70938104    -0.71000
O385        O  0.73655133  0.19946824  0.73678379    -0.70900
O386        O  0.73988759  0.20164679  0.67893692    -0.71100
V387        V  0.74181077  0.23272275  0.70957222     1.35200
V388        V  0.73824528  0.20114827  0.70787566     1.35200
C389        C  0.74209863  0.21846862  0.66993274     0.78300
C390        C  0.73820152  0.21556882  0.74744979     0.78400
C391        C  0.77848049  0.21273900  0.71005795     0.78200
C392        C  0.70152902  0.22088330  0.70786452     0.78200
N393        N  0.54263191  0.23507866  0.76023636    -0.02600
C394        C  0.52844461  0.24993074  0.75729726     0.00000
C395        C  0.53675104  0.26901851  0.76072139    -0.22900
C396        C  0.55631400  0.26632199  0.76652880    -0.23100
C397        C  0.55973915  0.24561893  0.76610386    -0.00100
H398        H  0.52875719  0.28333940  0.76096679     0.13700
H399        H  0.56657137  0.27821553  0.77184745     0.13700
N400        N  0.54149261  0.21386727  0.75473660    -0.02600
C401        C  0.52595537  0.20019926  0.75795927     0.00000
C402        C  0.53160995  0.18070594  0.75271949    -0.22900
C403        C  0.55088941  0.18188846  0.74565429    -0.23100
C404        C  0.55689556  0.20206126  0.74709770    -0.00100
H405        H  0.52209619  0.16716500  0.75277059     0.13700
H406        H  0.55945757  0.16933721  0.73938629     0.13700
N407        N  0.29205025  0.97114572  0.75928034    -0.02600
C408        C  0.28502850  0.98795524  0.76955929     0.00000
C409        C  0.29192849  0.98778698  0.78948875    -0.22900
C410        C  0.30206821  0.96998805  0.79207570    -0.23100
C411        C  0.30127338  0.95953473  0.77373252    -0.00100
H412        H  0.28847862  0.99869524  0.80142424     0.13700
H413        H  0.30684995  0.96398338  0.80659408     0.13700
N414        N  0.29892500  0.97139211  0.73872182    -0.02600
C415        C  0.29702766  0.95609936  0.72454375     0.00000
C416        C  0.30512337  0.96224185  0.70618524    -0.22900
C417        C  0.31389460  0.98087456  0.70942018    -0.23100
C418        C  0.31008838  0.98640724  0.72942174    -0.00100
H419        H  0.30671482  0.95301855  0.69251562     0.13700
H420        H  0.32313441  0.98894844  0.69850256     0.13700
N421        N  0.03787655  0.20898408  0.77794500    -0.02600
C422        C  0.02172103  0.20304201  0.78963668     0.00000
C423        C  0.02670982  0.18685360  0.80184302    -0.22900
C424        C  0.04637031  0.18239411  0.79793873    -0.23100
C425        C  0.05302261  0.19602957  0.78353530    -0.00100
H426        H  0.01697572  0.17918389  0.81264893     0.13700
H427        H  0.05521615  0.17077560  0.80530964     0.13700
N428        N  0.03820815  0.22394840  0.76222871    -0.02600
C429        C  0.05376026  0.23695097  0.75695349     0.00000
C430        C  0.04807454  0.24921708  0.74104388    -0.22900
C431        C  0.02880924  0.24377859  0.73583498    -0.23100
C432        C  0.02287657  0.22850688  0.74887177    -0.00100
H433        H  0.05727241  0.26073167  0.73369701     0.13700
H434        H  0.01987747  0.25037267  0.72376754     0.13700
O435        O  0.36879569  0.26793571  0.78205296    -0.70900
O436        O  0.31156455  0.26979281  0.78787335    -0.71100
O437        O  0.33917516  0.23997876  0.78656921    -0.71000
O438        O  0.34114707  0.29786285  0.78305632    -0.71000
O439        O  0.33887838  0.29547121  0.75015906    -0.71000
O440        O  0.33466484  0.23811814  0.75377287    -0.71000
O441        O  0.30817192  0.26885502  0.75492400    -0.70900
O442        O  0.36533335  0.26439260  0.74928483    -0.71100
V443        V  0.34011385  0.26889803  0.78426938     1.35200
V444        V  0.33682341  0.26680023  0.75268416     1.35200
C445        C  0.37678410  0.26512511  0.76477552     0.78300
C446        C  0.30014168  0.26964712  0.77239163     0.78400
C447        C  0.33664264  0.22925561  0.77061338     0.78200
C448        C  0.34033915  0.30657610  0.76595392     0.78200
O449        O  0.21098111  0.16844801  0.78570788    -0.70900
O450        O  0.26853047  0.16603069  0.78669731    -0.71100
O451        O  0.24093226  0.19607275  0.78858640    -0.71000
O452        O  0.23849394  0.13825508  0.78386890    -0.71000
O453        O  0.23820163  0.14044217  0.75094382    -0.71000
O454        O  0.24222026  0.19836455  0.75561463    -0.71000
O455        O  0.26899054  0.16744625  0.75363135    -0.70900
O456        O  0.21171170  0.17169773  0.75281211    -0.71100
V457        V  0.23974863  0.16719329  0.78557167     1.35200
V458        V  0.24029280  0.16937658  0.75388667     1.35200
C459        C  0.20167292  0.17148216  0.76916351     0.78300
C460        C  0.27852541  0.16623937  0.77029016     0.78400
C461        C  0.24158699  0.20708216  0.77290148     0.78200
C462        C  0.23809072  0.12937924  0.76664101     0.78200
O463        O  0.24058860  0.29611637  0.79701270    -0.70900
O464        O  0.24198100  0.23816707  0.79205437    -0.71100
O465        O  0.26984557  0.26837803  0.79196261    -0.71000
O466        O  0.21229943  0.26547758  0.79699443    -0.71000
O467        O  0.20946055  0.26793880  0.76413901    -0.71000
O468        O  0.26671681  0.27079032  0.75910420    -0.71000
O469        O  0.23918736  0.24049774  0.75917446    -0.70900
O470        O  0.23718821  0.29837040  0.76421057    -0.71100
V471        V  0.24106353  0.26713796  0.79389078     1.35200
V472        V  0.23815380  0.26939085  0.76232623     1.35200
C473        C  0.23916776  0.30716579  0.78138351     0.78300
C474        C  0.24103275  0.22948654  0.77476334     0.78400
C475        C  0.27802165  0.26979127  0.77461350     0.78200
C476        C  0.20109880  0.26577322  0.78129757     0.78200
O477        O  0.36799960  0.17114145  0.75441001    -0.70900
O478        O  0.31060394  0.16605158  0.75404172    -0.71100
O479        O  0.33713494  0.19704900  0.75450841    -0.71000
O480        O  0.34158332  0.13968923  0.75385862    -0.71000
O481        O  0.34114112  0.13931800  0.78692668    -0.71000
O482        O  0.33729962  0.19733587  0.78763646    -0.71000
O483        O  0.31044747  0.16619550  0.78716355    -0.70900
O484        O  0.36791260  0.17122337  0.78752966    -0.71100
V485        V  0.33931657  0.16838553  0.75488128     1.35200
V486        V  0.33920467  0.16838753  0.78669858     1.35200
C487        C  0.37758720  0.17303516  0.77103001     0.78300
C488        C  0.30074632  0.16588771  0.77052653     0.78400
C489        C  0.33682075  0.20698724  0.77107216     0.78200
C490        C  0.34205744  0.12963383  0.77014622     0.78200
N491        N  0.29826394  0.46839036  0.76922832    -0.02600
C492        C  0.31526460  0.45682398  0.77084025     0.00000
C493        C  0.32990893  0.46646866  0.78238935    -0.22900
C494        C  0.32198047  0.48462801  0.78830951    -0.23100
C495        C  0.30215527  0.48535688  0.78108940    -0.00100
H496        H  0.34457634  0.46057498  0.78662801     0.13700
H497        H  0.32995669  0.49597223  0.79741363     0.13700
N498        N  0.28506232  0.46693312  0.75209873    -0.02600
C499        C  0.27471164  0.44971088  0.74587149     0.00000
C500        C  0.26918754  0.45113236  0.72564137    -0.22900
C501        C  0.27659730  0.46922555  0.71879088    -0.23100
C502        C  0.28648262  0.47870276  0.73494018    -0.00100
H503        H  0.26078471  0.43994900  0.71668818     0.13700
H504        H  0.27443973  0.47524365  0.70365758     0.13700
C505        C  0.23198059  0.36271038  0.76808806    -0.01200
C506        C  0.24808600  0.37233810  0.77881132     0.07400
C507        C  0.25934636  0.36086101  0.79266683    -0.07100
C508        C  0.25566573  0.33984632  0.79490082     0.04900
C509        C  0.24074923  0.32983534  0.78274202    -0.14300
C510        C  0.22863612  0.34164116  0.76988702    -0.07700
C511        C  0.25630014  0.39247739  0.77208999     0.05800
C512        C  0.25176001  0.41073155  0.78250195    -0.08800
C513        C  0.25858952  0.42973830  0.77504483     0.00800
C514        C  0.27047417  0.43052765  0.75718236     0.00700
C515        C  0.27533486  0.41210233  0.74726280    -0.12400
C516        C  0.26837532  0.39335786  0.75446569     0.01100
C517        C  0.25254141  0.44819157  0.78536944     0.40500
C518        C  0.27299702  0.37508113  0.74302915     0.37100
C519        C  0.21939708  0.37402208  0.75429524     0.36800
C520        C  0.26862356  0.32866361  0.80844594     0.37600
N521        N  0.24772743  0.46301638  0.79364311    -0.43200
N522        N  0.27618254  0.36019510  0.73406168    -0.43700
N523        N  0.27901037  0.31972434  0.81933107    -0.41000
N524        N  0.20922427  0.38310909  0.74333269    -0.42500
H525        H  0.21693592  0.33426655  0.76070202     0.13700
H526        H  0.27191304  0.36805752  0.80076645     0.10200
H527        H  0.24240248  0.41018617  0.79603846     0.11200
H528        H  0.28421131  0.41241673  0.73337382     0.17100
C529        C  0.33037800  0.35877834  0.74414339    -0.01200
C530        C  0.33443756  0.37181828  0.76094697     0.07400
C531        C  0.34254310  0.36341510  0.77878707    -0.07100
C532        C  0.34533298  0.34240544  0.78062832     0.04900
C533        C  0.34012360  0.32918223  0.76423981    -0.14300
C534        C  0.33334766  0.33776183  0.74589375    -0.07700
C535        C  0.32822823  0.39363232  0.76153782     0.05800
C536        C  0.31597097  0.39999178  0.77783450    -0.08800
C537        C  0.31106373  0.42045117  0.78060436     0.00800
C538        C  0.31704021  0.43492792  0.76603769     0.00700
C539        C  0.32904137  0.42871276  0.74954366    -0.12400
C540        C  0.33506244  0.40833077  0.74742239     0.01100
C541        C  0.30082797  0.42641821  0.79913341     0.40500
C542        C  0.34959458  0.40338753  0.73177775     0.37100
C543        C  0.32216311  0.36625767  0.72527857     0.36800
C544        C  0.35330290  0.33499674  0.79964137     0.37600
N545        N  0.29270929  0.43120878  0.81401381    -0.43200
N546        N  0.36126320  0.39952345  0.71921357    -0.43700
N547        N  0.35967285  0.32913980  0.81491972    -0.41000
N548        N  0.31572350  0.37217629  0.71005321    -0.42500
H549        H  0.32945691  0.32793638  0.73305145     0.13700
H550        H  0.34608395  0.37332761  0.79167479     0.10200
H551        H  0.31083410  0.38899125  0.78895402     0.11200
H552        H  0.33475599  0.44003821  0.73905276     0.17100
C553        C  0.09902465  0.25327334  0.78916241    -0.01200
C554        C  0.11512631  0.24949384  0.77554533     0.07400
C555        C  0.11094611  0.24013077  0.75673056    -0.07100
C556        C  0.09112997  0.23491099  0.75111022     0.04900
C557        C  0.07486195  0.23851997  0.76467570    -0.14300
C558        C  0.07899334  0.24790779  0.78359223    -0.07700
C559        C  0.13643701  0.25594924  0.77974308     0.05800
C560        C  0.14840545  0.24453662  0.79303490    -0.08800
C561        C  0.16942219  0.24805786  0.79453510     0.00800
C562        C  0.17874848  0.26325061  0.78252739     0.00700
C563        C  0.16657520  0.27513234  0.76984488    -0.12400
C564        C  0.14562115  0.27170288  0.76847570     0.01100
C565        C  0.18122405  0.23480474  0.80722394     0.40500
C566        C  0.13384592  0.28426984  0.75506028     0.37100
C567        C  0.10263172  0.26344950  0.80843167     0.36800
C568        C  0.08780339  0.22616751  0.73104609     0.37600
N569        N  0.19065026  0.22409978  0.81734653    -0.43200
N570        N  0.12438375  0.29436416  0.74435503    -0.43700
N571        N  0.08511852  0.21910326  0.71502182    -0.41000
N572        N  0.10554987  0.27166829  0.82386415    -0.42500
H573        H  0.06656611  0.25157287  0.79371018     0.13700
H574        H  0.12322745  0.23739954  0.74612268     0.10200
H575        H  0.14148226  0.23224895  0.80152995     0.11200
H576        H  0.17353734  0.28689706  0.76064299     0.17100
C577        C  0.10189359  0.18390834  0.75665505    -0.01200
C578        C  0.11611660  0.18860625  0.77216127     0.07400
C579        C  0.10955878  0.19760999  0.79035051    -0.07100
C580        C  0.08906977  0.20130292  0.79362512     0.04900
C581        C  0.07467648  0.19644589  0.77827378    -0.14300
C582        C  0.08120792  0.18763696  0.75990702    -0.07700
C583        C  0.13778683  0.18325429  0.77047636     0.05800
C584        C  0.15034430  0.19433769  0.75737384    -0.08800
C585        C  0.17121249  0.19071199  0.75669839     0.00800
C586        C  0.17969438  0.17543468  0.76903956     0.00700
C587        C  0.16709670  0.16446823  0.78223220    -0.12400
C588        C  0.14629374  0.16826989  0.78305398     0.01100
C589        C  0.18373733  0.20390113  0.74440915     0.40500
C590        C  0.13394253  0.15669736  0.79700226     0.37100
C591        C  0.10811298  0.17456447  0.73771396     0.36800
C592        C  0.08305594  0.20966813  0.81313720     0.37600
N593        N  0.19378247  0.21461620  0.73473542    -0.43200
N594        N  0.12400134  0.14752823  0.80822445    -0.43700
N595        N  0.07820202  0.21645545  0.82869881    -0.41000
N596        N  0.11314982  0.16713064  0.72250865    -0.42500
H597        H  0.07013353  0.18317056  0.74841533     0.13700
H598        H  0.12045668  0.20113510  0.80231339     0.10200
H599        H  0.14392288  0.20626276  0.74815250     0.11200
H600        H  0.17353035  0.15292521  0.79194049     0.17100
C601        C  0.33337410  0.02571656  0.76638625    -0.01200
C602        C  0.33145496  0.04390133  0.75523097     0.07400
C603        C  0.32332250  0.04282248  0.73552795    -0.07100
C604        C  0.31681818  0.02439847  0.72692515     0.04900
C605        C  0.31783107  0.00615370  0.73830313    -0.14300
C606        C  0.32678295  0.00704059  0.75776168    -0.07700
C607        C  0.33788650  0.06449488  0.76286475     0.05800
C608        C  0.35123148  0.07585904  0.75069670    -0.08800
C609        C  0.35361280  0.09689401  0.75349928     0.00800
C610        C  0.34290806  0.10703853  0.76916666     0.00700
C611        C  0.33101028  0.09541966  0.78256676    -0.12400
C612        C  0.32819753  0.07435667  0.77936129     0.01100
C613        C  0.36658676  0.10777539  0.73954323     0.40500
C614        C  0.31419004  0.06353495  0.79224862     0.37100
C615        C  0.34231513  0.02570597  0.78645911     0.36800
C616        C  0.30816902  0.02512295  0.70667248     0.37600
N617        N  0.37688441  0.11647819  0.72826747    -0.43200
N618        N  0.30319560  0.05463207  0.80266354    -0.43700
N619        N  0.30123693  0.02581318  0.69047649    -0.41000
N620        N  0.34927640  0.02560833  0.80266075    -0.42500
H621        H  0.32884427  0.99312607  0.76616866     0.13700
H622        H  0.32178731  0.05667113  0.72680025     0.10200
H623        H  0.35882919  0.06843206  0.73803916     0.11200
H624        H  0.32272655  0.10301194  0.79465770     0.17100
C625        C  0.26276748  0.03451052  0.74505218    -0.01200
C626        C  0.25003391  0.04150301  0.76092615     0.07400
C627        C  0.24400571  0.02736878  0.77570777    -0.07100
C628        C  0.25342610  0.00834352  0.77706335     0.04900
C629        C  0.26889604  0.00280673  0.76316922    -0.14300
C630        C  0.27106409  0.01482373  0.74573539    -0.07700
C631        C  0.24420911  0.06356520  0.76317109     0.05800
C632        C  0.23651679  0.07423780  0.74638737    -0.08800
C633        C  0.23395918  0.09548469  0.74711465     0.00800
C634        C  0.23852585  0.10660243  0.76520090     0.00700
C635        C  0.24466108  0.09568925  0.78242374    -0.12400
C636        C  0.24755460  0.07457307  0.78160242     0.01100
C637        C  0.22670486  0.10534487  0.72899499     0.40500
C638        C  0.25447173  0.06484730  0.79994093     0.37100
C639        C  0.26900857  0.04769740  0.72871442     0.36800
C640        C  0.24710991  0.99482636  0.79311716     0.37600
N641        N  0.22091948  0.11317339  0.71440847    -0.43200
N642        N  0.25962943  0.05711111  0.81481315    -0.43700
N643        N  0.24206766  0.98393920  0.80593553    -0.41000
N644        N  0.27393121  0.05847143  0.71575140    -0.42500
H645        H  0.27967352  0.00962610  0.73330415     0.13700
H646        H  0.23282759  0.03163663  0.78696804     0.10200
H647        H  0.23289310  0.06600111  0.73242546     0.11200
H648        H  0.24795793  0.10378212  0.79656024     0.17100
C649        C  0.43311337  0.17277757  0.75727579    -0.01200
C650        C  0.44063999  0.18993415  0.76820488     0.07400
C651        C  0.42739791  0.20109644  0.78060368    -0.07100
C652        C  0.40692024  0.19542562  0.78219139     0.04900
C653        C  0.39936856  0.17842412  0.77103300    -0.14300
C654        C  0.41256862  0.16735619  0.75854522    -0.07700
C655        C  0.46227143  0.19634386  0.76671353     0.05800
C656        C  0.47004812  0.20164682  0.74760551    -0.08800
C657        C  0.49086193  0.20476945  0.74486011     0.00800
C658        C  0.50425864  0.20366847  0.76163685     0.00700
C659        C  0.49638378  0.19893889  0.78088600    -0.12400
C660        C  0.47554029  0.19551053  0.78359104     0.01100
C661        C  0.49837366  0.20775953  0.72443735     0.40500
C662        C  0.46835443  0.18959235  0.80343952     0.37100
C663        C  0.44629667  0.16019960  0.74505655     0.36800
C664        C  0.39377093  0.20790557  0.79454918     0.37600
N665        N  0.50446598  0.21021101  0.70812153    -0.43200
N666        N  0.46253988  0.18480827  0.81932131    -0.43700
N667        N  0.38325355  0.21794182  0.80443704    -0.41000
N668        N  0.45690701  0.15010996  0.73532789    -0.42500
H669        H  0.40683588  0.15433382  0.74990727     0.13700
H670        H  0.43303758  0.21441500  0.78883768     0.10200
H671        H  0.45993613  0.20225922  0.73457113     0.11200
H672        H  0.50669470  0.19687007  0.79358133     0.17100
C673        C  0.47434570  0.25673443  0.74094421    -0.01200
C674        C  0.46383703  0.25456524  0.75955593     0.07400
C675        C  0.47479200  0.24959203  0.77715141    -0.07100
C676        C  0.49584539  0.24720124  0.77648856     0.04900
C677        C  0.50616883  0.24823815  0.75768378    -0.14300
C678        C  0.49532190  0.25361368  0.74018233    -0.07700
C679        C  0.44152111  0.25761374  0.76099058     0.05800
C680        C  0.42856184  0.24578899  0.74852995    -0.08800
C681        C  0.40750038  0.24819693  0.74925332     0.00800
C682        C  0.39897440  0.26248776  0.76292708     0.00700
C683        C  0.41189326  0.27404606  0.77566319    -0.12400
C684        C  0.43298116  0.27189873  0.77467600     0.01100
C685        C  0.39501658  0.23517080  0.73642267     0.40500
C686        C  0.44548197  0.28494112  0.78748578     0.37100
C687        C  0.46418085  0.26335194  0.72270985     0.36800
C688        C  0.50669171  0.24424630  0.79537228     0.37600
N689        N  0.38508243  0.22468113  0.72611549    -0.43200
N690        N  0.45542621  0.29540939  0.79780720    -0.43700
N691        N  0.51542178  0.24183910  0.81045825    -0.41000
N692        N  0.45604432  0.26874938  0.70812080    -0.42500
H693        H  0.50340660  0.25600631  0.72602376     0.13700
H694        H  0.46692911  0.24799027  0.79154382     0.10200
H695        H  0.43494127  0.23447519  0.73830610     0.11200
H696        H  0.40549444  0.28504920  0.78621770     0.17100
C697        C  0.64588079  0.20753770  0.70118792    -0.01200
C698        C  0.63654825  0.22119850  0.71487683     0.07400
C699        C  0.64842939  0.23619043  0.72468282    -0.07100
C700        C  0.66952958  0.23699307  0.72195095     0.04900
C701        C  0.67907761  0.22269498  0.70893268    -0.14300
C702        C  0.66693386  0.20840284  0.69828561    -0.07700
C703        C  0.61575725  0.21715282  0.72259044     0.05800
C704        C  0.61359269  0.20186630  0.73706803    -0.08800
C705        C  0.59473834  0.19726336  0.74548162     0.00800
C706        C  0.57732027  0.20832614  0.73964732     0.00700
C707        C  0.57943055  0.22363173  0.72496697    -0.12400
C708        C  0.59853168  0.22808660  0.71640005     0.01100
C709        C  0.59390463  0.18119549  0.76034330     0.40500
C710        C  0.60012673  0.24377807  0.70128477     0.37100
C711        C  0.63423152  0.19184005  0.69077528     0.36800
C712        C  0.68111108  0.25124108  0.73433027     0.37600
N713        N  0.59335214  0.16825833  0.77216643    -0.43200
N714        N  0.60137018  0.25641547  0.68919243    -0.43700
N715        N  0.69034061  0.26255760  0.74442617    -0.41000
N716        N  0.62486999  0.17926279  0.68245213    -0.42500
H717        H  0.67400312  0.19737186  0.68822302     0.13700
H718        H  0.64137966  0.24640333  0.73558124     0.10200
H719        H  0.62683032  0.19345785  0.74184395     0.11200
H720        H  0.56616432  0.23185465  0.72000353     0.17100
C721        C  0.93324011  0.21550234  0.71164142    -0.01200
C722        C  0.94180656  0.20292410  0.72665248     0.07400
C723        C  0.92956063  0.18786701  0.73553527    -0.07100
C724        C  0.90873900  0.18633940  0.73094605     0.04900
C725        C  0.89987244  0.20002745  0.71704274    -0.14300
C726        C  0.91251754  0.21407122  0.70710619    -0.07700
C727        C  0.96247356  0.20748500  0.73504103     0.05800
C728        C  0.96594631  0.22699942  0.74320945    -0.08800
C729        C  0.98536041  0.23351949  0.74884517     0.00800
C730        C  0.00194391  0.22010868  0.74724967     0.00700
C731        C  0.99841690  0.20010165  0.74015306    -0.12400
C732        C  0.97878351  0.19369135  0.73410383     0.01100
C733        C  0.98801810  0.25442820  0.75554715     0.40500
C734        C  0.97597060  0.17340232  0.72589350     0.37100
C735        C  0.94540372  0.23036270  0.70098145     0.36800
C736        C  0.89665748  0.17168072  0.74193029     0.37600
N737        N  0.99022538  0.27116241  0.76088042    -0.43200
N738        N  0.97369929  0.15711914  0.71930346    -0.43700
N739        N  0.88701455  0.15994572  0.75080772    -0.41000
N740        N  0.95522541  0.24224750  0.69250557    -0.42500
H741        H  0.90607485  0.22440202  0.69611272     0.13700
H742        H  0.93605725  0.17794818  0.74680572     0.10200
H743        H  0.95347162  0.23756889  0.74424705     0.11200
H744        H  0.01109723  0.18985594  0.73843797     0.17100
C745        C  0.64517541  0.22975102  0.81396866    -0.01200
C746        C  0.63493861  0.21701166  0.79985590     0.07400
C747        C  0.64526682  0.20086740  0.79055304    -0.07100
C748        C  0.66601553  0.19812368  0.79413078     0.04900
C749        C  0.67656423  0.21164005  0.80742434    -0.14300
C750        C  0.66579384  0.22690551  0.81774384    -0.07700
C751        C  0.61528105  0.22321697  0.79127200     0.05800
C752        C  0.61571429  0.23854538  0.77669936    -0.08800
C753        C  0.59786380  0.24578426  0.76823367     0.00800
C754        C  0.57894500  0.23726365  0.77405314     0.00700
C755        C  0.57849933  0.22185597  0.78874914    -0.12400
C756        C  0.59657461  0.21486266  0.79747715     0.01100
C757        C  0.59957915  0.26177363  0.75336008     0.40500
C758        C  0.59564937  0.19933851  0.81282199     0.37100
C759        C  0.63515688  0.24680934  0.82351132     0.36800
C760        C  0.67644932  0.18284570  0.78228057     0.37600
N761        N  0.60104778  0.27463287  0.74152194    -0.43200
N762        N  0.59492932  0.18686570  0.82512131    -0.43700
N763        N  0.68481496  0.17070585  0.77265061    -0.41000
N764        N  0.62711413  0.26053816  0.83102552    -0.42500
H765        H  0.67375635  0.23733988  0.82798207     0.13700
H766        H  0.63746968  0.19137489  0.77933684     0.10200
H767        H  0.63016829  0.24503188  0.77208598     0.11200
H768        H  0.56406426  0.21556347  0.79362360     0.17100
C769        C  0.92729819  0.24020498  0.79720869    -0.01200
C770        C  0.93929360  0.22521010  0.80642475     0.07400
C771        C  0.93025670  0.21197167  0.82046310    -0.07100
C772        C  0.90929766  0.21169128  0.82342062     0.04900
C773        C  0.89698647  0.22565470  0.81299910    -0.14300
C774        C  0.90632912  0.24043993  0.80072327    -0.07700
C775        C  0.96038467  0.22090241  0.79977437     0.05800
C776        C  0.97600033  0.23548578  0.80245353    -0.08800
C777        C  0.99625969  0.23062614  0.79792696     0.00800
C778        C  0.00090582  0.21103887  0.79043674     0.00700
C779        C  0.98518873  0.19680333  0.78728312    -0.12400
C780        C  0.96517405  0.20152168  0.79170800     0.01100
C781        C  0.01201822  0.24562241  0.80159921     0.40500
C782        C  0.94994672  0.18578759  0.78862971     0.37100
C783        C  0.93582366  0.25480215  0.78329653     0.36800
C784        C  0.90093462  0.19631018  0.83658369     0.37600
N785        N  0.02464312  0.25771070  0.80437964    -0.43200
N786        N  0.93778157  0.17309479  0.78658980    -0.43700
N787        N  0.89451171  0.18369711  0.84697942    -0.41000
N788        N  0.94241586  0.26676381  0.77225412    -0.42500
H789        H  0.89709266  0.25142450  0.79281877     0.13700
H790        H  0.93951024  0.20077539  0.82806404     0.10200
H791        H  0.97247279  0.25037421  0.80870567     0.11200
H792        H  0.98872976  0.18158939  0.78182355     0.17100
C793        C  0.31473584  0.57355616  0.70818923    -0.01200
C794        C  0.30319521  0.56506348  0.72416272     0.07400
C795        C  0.29146925  0.57800943  0.73640723    -0.07100
C796        C  0.28975416  0.59868997  0.73201172     0.04900
C797        C  0.30046419  0.60708462  0.71545352    -0.14300
C798        C  0.31354987  0.59454850  0.70416518    -0.07700
C799        C  0.29998795  0.54267049  0.72637204     0.05800
C800        C  0.31571344  0.52974247  0.73253525    -0.08800
C801        C  0.31205886  0.50873028  0.73547528     0.00800
C802        C  0.29216814  0.50072357  0.73338163     0.00700
C803        C  0.27684236  0.51370651  0.72644569    -0.12400
C804        C  0.28061481  0.53421300  0.72264181     0.01100
C805        C  0.32913963  0.49562689  0.73862068     0.40500
C806        C  0.26437786  0.54624750  0.71436641     0.37100
C807        C  0.32684578  0.56087668  0.69500379     0.36800
C808        C  0.27657946  0.61094541  0.74455884     0.37600
N809        N  0.34310817  0.48532192  0.74066733    -0.43200
N810        N  0.25143089  0.55597638  0.70778776    -0.43700
N811        N  0.26589351  0.62080122  0.75443125    -0.41000
N812        N  0.33653929  0.55072047  0.68439596    -0.42500
H813        H  0.32208566  0.60094835  0.69162711     0.13700
H814        H  0.28261298  0.57163013  0.74874232     0.10200
H815        H  0.33086436  0.53598086  0.73467162     0.11200
H816        H  0.26166135  0.50767825  0.72383166     0.17100
C817        C  0.28463002  0.66207338  0.61301090    -0.01200
C818        C  0.29198048  0.68063070  0.60510214     0.07400
C819        C  0.30269994  0.69411726  0.61797717    -0.07100
C820        C  0.30560390  0.68962566  0.63866575     0.04900
C821        C  0.29771285  0.67128163  0.64674920    -0.14300
C822        C  0.28748451  0.65758760  0.63365190    -0.07700
C823        C  0.28619009  0.68719626  0.58428153     0.05800
C824        C  0.26678867  0.69511930  0.58151324    -0.08800
C825        C  0.25944591  0.69925837  0.56202349     0.00800
C826        C  0.27165624  0.69554726  0.54465383     0.00700
C827        C  0.29137925  0.68823768  0.54747163    -0.12400
C828        C  0.29881088  0.68434617  0.56717690     0.01100
C829        C  0.23896754  0.70668835  0.56020505     0.40500
C830        C  0.31912666  0.67681363  0.56950207     0.37100
C831        C  0.27332444  0.64779958  0.60039389     0.36800
C832        C  0.31499192  0.70496556  0.65160571     0.37600
N833        N  0.22259532  0.71268966  0.55875212    -0.43200
N834        N  0.33547269  0.67088447  0.57142046    -0.43700
N835        N  0.32239928  0.71738368  0.66191663    -0.41000
N836        N  0.26423467  0.63636143  0.59030741    -0.42500
H837        H  0.28108653  0.64364496  0.63973716     0.13700
H838        H  0.30792098  0.70861759  0.61208261     0.10200
H839        H  0.25706630  0.69739670  0.59463102     0.11200
H840        H  0.30067970  0.68489307  0.53428138     0.17100
C841        C  0.29262549  0.57628943  0.79412505    -0.01200
C842        C  0.27440535  0.56491390  0.79567143     0.07400
C843        C  0.25624343  0.57528472  0.79919041    -0.07100
C844        C  0.25612343  0.59661612  0.80164222     0.04900
C845        C  0.27456929  0.60795361  0.80097392    -0.14300
C846        C  0.29260031  0.59743410  0.79696736    -0.07700
C847        C  0.27487338  0.54219792  0.79495767     0.05800
C848        C  0.28601804  0.53229193  0.80993373    -0.08800
C849        C  0.29192878  0.51211959  0.80712190     0.00800
C850        C  0.28802680  0.50191244  0.78826006     0.00700
C851        C  0.27283764  0.51012351  0.77583011    -0.12400
C852        C  0.26641738  0.53039007  0.77890377     0.01100
C853        C  0.30189599  0.50233202  0.82397684     0.40500
C854        C  0.25155322  0.53889673  0.76540535     0.37100
C855        C  0.31159176  0.56656648  0.78924506     0.36800
C856        C  0.23687913  0.60627881  0.80516965     0.37600
N857        N  0.30984717  0.49457144  0.83753426    -0.43200
N858        N  0.23932901  0.54578197  0.75493053    -0.43700
N859        N  0.22140551  0.61398539  0.80790018    -0.41000
N860        N  0.32672813  0.55871934  0.78527175    -0.42500
H861        H  0.30681578  0.60577866  0.79576176     0.13700
H862        H  0.24218811  0.56667123  0.80039136     0.10200
H863        H  0.29096025  0.54067731  0.82342623     0.11200
H864        H  0.26648099  0.50120084  0.76348133     0.17100
C865        C  0.29849184  0.85499212  0.73266921    -0.01200
C866        C  0.28395421  0.86877608  0.72513249     0.07400
C867        C  0.26767232  0.86089199  0.71338716    -0.07100
C868        C  0.26601241  0.83995070  0.70886380     0.04900
C869        C  0.28116786  0.82661771  0.71561980    -0.14300
C870        C  0.29697622  0.83434941  0.72780097    -0.07700
C871        C  0.28690060  0.89134778  0.72727668     0.05800
C872        C  0.30595157  0.89954197  0.72237909    -0.08800
C873        C  0.30980116  0.92038276  0.72349207     0.00800
C874        C  0.29398906  0.93403826  0.72824856     0.00700
C875        C  0.27475500  0.92610156  0.73292807    -0.12400
C876        C  0.27122584  0.90488849  0.73296258     0.01100
C877        C  0.33019256  0.92733867  0.71908547     0.40500
C878        C  0.25150564  0.89746790  0.73901496     0.37100
C879        C  0.31565571  0.86131294  0.74496764     0.36800
C880        C  0.24924265  0.83272688  0.69650748     0.37600
N881        N  0.34650751  0.93284157  0.71547884    -0.43200
N882        N  0.23569385  0.89151214  0.74389793    -0.43700
N883        N  0.23576947  0.82690409  0.68664141    -0.41000
N884        N  0.32988805  0.86573644  0.75442125    -0.42500
H885        H  0.30840322  0.82411359  0.73358737     0.13700
H886        H  0.25664878  0.87117137  0.70701073     0.10200
H887        H  0.31796021  0.88962018  0.71718977     0.11200
H888        H  0.26249678  0.93644577  0.73638058     0.17100
C889        C  0.29462876  0.76754762  0.61359865    -0.01200
C890        C  0.28013389  0.75389748  0.60508011     0.07400
C891        C  0.26679698  0.74354967  0.61801230    -0.07100
C892        C  0.26730342  0.74693790  0.63906244     0.04900
C893        C  0.28140944  0.76102114  0.64761926    -0.14300
C894        C  0.29521836  0.77091998  0.63474258    -0.07700
C895        C  0.27864250  0.74998396  0.58277827     0.05800
C896        C  0.29532009  0.74177301  0.57248771    -0.08800
C897        C  0.29454944  0.73813113  0.55146566     0.00800
C898        C  0.27652189  0.74188703  0.54050534     0.00700
C899        C  0.25990688  0.75025503  0.55070947    -0.12400
C900        C  0.26077231  0.75419699  0.57172383     0.01100
C901        C  0.31263890  0.73107672  0.54135617     0.40500
C902        C  0.24341538  0.76325298  0.58147430     0.37100
C903        C  0.30869390  0.77863013  0.60093285     0.36800
C904        C  0.25378832  0.73498236  0.65155497     0.37600
N905        N  0.32709731  0.72527507  0.53331370    -0.43200
N906        N  0.22951503  0.77050433  0.58932617    -0.43700
N907        N  0.24300542  0.72533173  0.66154182    -0.41000
N908        N  0.31999329  0.78747860  0.59077822    -0.42500
H909        H  0.30627498  0.78152897  0.64117178     0.13700
H910        H  0.25599812  0.73266076  0.61160452     0.10200
H911        H  0.30906726  0.73845253  0.58087345     0.11200
H912        H  0.24637881  0.75402223  0.54216825     0.17100
C913        C  0.30512856  0.86408310  0.80684988    -0.01200
C914        C  0.29299919  0.87319437  0.79169270     0.07400
C915        C  0.27873287  0.86084216  0.78127641    -0.07100
C916        C  0.27637225  0.84005789  0.78566609     0.04900
C917        C  0.28865942  0.83089708  0.80065417    -0.14300
C918        C  0.30308683  0.84313852  0.81095395    -0.07700
C919        C  0.29499007  0.89536826  0.78622946     0.05800
C920        C  0.31404623  0.90366302  0.78091256    -0.08800
C921        C  0.31629451  0.92422666  0.77543913     0.00800
C922        C  0.29928188  0.93699130  0.77494187     0.00700
C923        C  0.28029654  0.92883784  0.78040323    -0.12400
C924        C  0.27802476  0.90837681  0.78601546     0.01100
C925        C  0.33624900  0.93204848  0.77077697     0.40500
C926        C  0.25831509  0.90151642  0.79276198     0.37100
C927        C  0.31924289  0.87602524  0.81898313     0.36800
C928        C  0.26184921  0.82831943  0.77379584     0.37600
N929        N  0.35224396  0.93830819  0.76696087    -0.43200
N930        N  0.24250869  0.89607455  0.79820795    -0.43700
N931        N  0.25020607  0.81898431  0.76421945    -0.41000
N932        N  0.33050674  0.88561429  0.82876584    -0.42500
H933        H  0.31258498  0.83638621  0.82252090     0.13700
H934        H  0.26955590  0.86741136  0.76935281     0.10200
H935        H  0.32734813  0.89417836  0.78137382     0.11200
H936        H  0.26727302  0.93878441  0.78103201     0.17100
C937        C  0.40954088  0.71751069  0.19967214    -0.01200
C938        C  0.42153363  0.73276617  0.20925773     0.07400
C939        C  0.41278911  0.75169266  0.21354672    -0.07100
C940        C  0.39185592  0.75465425  0.21103163     0.04900
C941        C  0.37932353  0.73839895  0.20391390    -0.14300
C942        C  0.38865314  0.72032503  0.19730915    -0.07700
C943        C  0.44199431  0.72822133  0.21775244     0.05800
C944        C  0.45924501  0.73919628  0.21141492    -0.08800
C945        C  0.47861100  0.73478013  0.21925828     0.00800
C946        C  0.48077459  0.71959143  0.23417139     0.00700
C947        C  0.46334987  0.70917444  0.24087755    -0.12400
C948        C  0.44421345  0.71328328  0.23287362     0.01100
C949        C  0.49598137  0.74541187  0.21118267     0.40500
C950        C  0.42705614  0.70167782  0.24022106     0.37100
C951        C  0.41821339  0.69851082  0.19287596     0.36800
C952        C  0.38364574  0.77404538  0.21718098     0.37600
N953        N  0.50983420  0.75404827  0.20463254    -0.43200
N954        N  0.41323620  0.69221608  0.24566140    -0.43700
N955        N  0.37716571  0.78963703  0.22213433    -0.41000
N956        N  0.42511639  0.68326226  0.18745243    -0.42500
H957        H  0.37949964  0.70798518  0.19094831     0.13700
H958        H  0.42212992  0.76378015  0.22007880     0.10200
H959        H  0.45764521  0.75082613  0.19994260     0.11200
H960        H  0.46478874  0.69740927  0.25225434     0.17100
C961        C  0.21277030  0.73126367  0.40545153    -0.01200
C962        C  0.23145486  0.73581727  0.41511395     0.07400
C963        C  0.24745659  0.74393336  0.40356999    -0.07100
C964        C  0.24530747  0.74650158  0.38247051     0.04900
C965        C  0.22710685  0.74051101  0.37268715    -0.14300
C966        C  0.21082921  0.73335345  0.38434556    -0.07700
C967        C  0.23565721  0.72834388  0.43595130     0.05800
C968        C  0.23580520  0.70726969  0.43855278    -0.08800
C969        C  0.24049990  0.69881993  0.45731362     0.00800
C970        C  0.24519103  0.71160598  0.47430695     0.00700
C971        C  0.24423377  0.73282081  0.47191084    -0.12400
C972        C  0.23984131  0.74126138  0.45278996     0.01100
C973        C  0.24192920  0.67687466  0.45813534     0.40500
C974        C  0.23909194  0.76309157  0.45090170     0.37100
C975        C  0.19558765  0.72386627  0.41689569     0.36800
C976        C  0.26230747  0.75399766  0.37085468     0.37600
N977        N  0.24322955  0.65932759  0.45867451    -0.43200
N978        N  0.23842350  0.78061120  0.44940248    -0.43700
N979        N  0.27568182  0.76002443  0.36119398    -0.41000
N980        N  0.18182844  0.71803273  0.42613996    -0.42500
H981        H  0.19670393  0.72903876  0.37687961     0.13700
H982        H  0.26194722  0.74718283  0.41083193     0.10200
H983        H  0.23270025  0.69729347  0.42559546     0.11200
H984        H  0.24667156  0.74278134  0.48495496     0.17100
C985        C  0.31993495  0.70066169  0.39682738    -0.01200
C986        C  0.31716861  0.71681523  0.41083864     0.07400
C987        C  0.31756853  0.73689128  0.40360078    -0.07100
C988        C  0.31982761  0.74103011  0.38281268     0.04900
C989        C  0.32114480  0.72477797  0.36853969    -0.14300
C990        C  0.32157019  0.70471343  0.37596831    -0.07700
C991        C  0.31345716  0.71364292  0.43303664     0.05800
C992        C  0.32578471  0.72411576  0.44717365    -0.08800
C993        C  0.31960468  0.72653580  0.46743897     0.00800
C994        C  0.30055940  0.71870122  0.47381489     0.00700
C995        C  0.29102770  0.70434195  0.46102118    -0.12400
C996        C  0.29646772  0.70266485  0.44037005     0.01100
C997        C  0.33244265  0.73834114  0.48109182     0.40500
C998        C  0.28319152  0.69137313  0.42675187     0.37100
C999        C  0.32151954  0.67983545  0.40341116     0.36800
C1000       C  0.32063320  0.76210332  0.37679473     0.37600
N1001       N  0.34274949  0.74783037  0.49197537    -0.43200
N1002       N  0.27261869  0.68238417  0.41570401    -0.43700
N1003       N  0.32129609  0.77902758  0.37207690    -0.41000
N1004       N  0.32266849  0.66309882  0.40859150    -0.42500
H1005       H  0.32317718  0.69199322  0.36544476     0.13700
H1006       H  0.31580972  0.74947019  0.41428487     0.10200
H1007       H  0.33950515  0.73169680  0.44203096     0.11200
H1008       H  0.27863943  0.69546989  0.46662970     0.17100
C1009       C  0.41431948  0.74850307  0.30935722    -0.01200
C1010       C  0.42444696  0.73350088  0.29790545     0.07400
C1011       C  0.41401338  0.71566578  0.29218680    -0.07100
C1012       C  0.39313437  0.71354175  0.29574972     0.04900
C1013       C  0.38245182  0.72949511  0.30551777    -0.14300
C1014       C  0.39351497  0.74645033  0.31300846    -0.07700
C1015       C  0.44433295  0.73794623  0.28835647     0.05800
C1016       C  0.46205748  0.72863559  0.29534806    -0.08800
C1017       C  0.48095216  0.73335174  0.28659580     0.00800
C1018       C  0.48205552  0.74686091  0.27005502     0.00700
C1019       C  0.46419486  0.75607288  0.26318237    -0.12400
C1020       C  0.44553585  0.75181452  0.27217953     0.01100
C1021       C  0.49905431  0.72600027  0.29620837     0.40500
C1022       C  0.42779575  0.76226529  0.26495116     0.37100
C1023       C  0.42484792  0.76655582  0.31667040     0.36800
C1024       C  0.38299528  0.69552408  0.28787165     0.37600
N1025       N  0.51358958  0.72061506  0.30431856    -0.43200
N1026       N  0.41348026  0.77075692  0.25961490    -0.43700
N1027       N  0.37494875  0.68105866  0.28148118    -0.41000
N1028       N  0.43333487  0.78097275  0.32257211    -0.42500
H1029       H  0.38576817  0.75857137  0.32108265     0.13700
H1030       H  0.42198122  0.70392762  0.28382258     0.10200
H1031       H  0.46121645  0.71834511  0.30812892     0.11200
H1032       H  0.46486503  0.76683143  0.25077159     0.17100
C1033       C  0.29905070  0.74759440  0.06757385    -0.01200
C1034       C  0.29760245  0.73256778  0.08277850     0.07400
C1035       C  0.29053845  0.71305336  0.07731748    -0.07100
C1036       C  0.28580880  0.70802854  0.05716307     0.04900
C1037       C  0.28758548  0.72285353  0.04186575    -0.14300
C1038       C  0.29423472  0.74257685  0.04722894    -0.07700
C1039       C  0.30397440  0.73626305  0.10434622     0.05800
C1040       C  0.29444330  0.75142402  0.11600359    -0.08800
C1041       C  0.29828655  0.75356618  0.13695969     0.00800
C1042       C  0.31172643  0.74012165  0.14667366     0.00700
C1043       C  0.32179139  0.72545101  0.13487918    -0.12400
C1044       C  0.31826619  0.72360190  0.11391317     0.01100
C1045       C  0.28729285  0.76883713  0.14826606     0.40500
C1046       C  0.32955979  0.70857504  0.10254828     0.37100
C1047       C  0.30675567  0.76776078  0.07219012     0.36800
C1048       C  0.28022185  0.68718341  0.05231542     0.37600
N1049       N  0.27845504  0.78111765  0.15725367    -0.43200
N1050       N  0.33859597  0.69652740  0.09344731    -0.43700
N1051       N  0.27577131  0.67049659  0.04841622    -0.41000
N1052       N  0.31294787  0.78394047  0.07587655    -0.42500
H1053       H  0.29654911  0.75374737  0.03539081     0.13700
H1054       H  0.28965663  0.70136377  0.08874918     0.10200
H1055       H  0.28346206  0.76117855  0.10888427     0.11200
H1056       H  0.33238547  0.71525990  0.14212197     0.17100
C1057       C  0.24892939  0.68426210  0.89467232    -0.01200
C1058       C  0.26358632  0.67740115  0.90857600     0.07400
C1059       C  0.27884823  0.66432192  0.90162110    -0.07100
C1060       C  0.28106463  0.65998525  0.88083415     0.04900
C1061       C  0.26764805  0.66867006  0.86662352    -0.14300
C1062       C  0.25099897  0.67976624  0.87387757    -0.07700
C1063       C  0.26608919  0.68680015  0.92910745     0.05800
C1064       C  0.25343743  0.68121732  0.94534049    -0.08800
C1065       C  0.25754332  0.68829586  0.96528519    -0.04000
C1066       C  0.27420996  0.70150097  0.96895648     0.00700
C1067       C  0.28630853  0.70752320  0.95246759    -0.12400
C1068       C  0.28246225  0.70030325  0.93279333     0.01100
C1069       C  0.24540013  0.68068460  0.98177520     0.40500
C1070       C  0.29632775  0.70589983  0.91674395     0.37100
C1071       C  0.23238293  0.69699280  0.90100402     0.36800
C1072       C  0.29751226  0.64702774  0.87453907     0.37600
N1073       N  0.23558662  0.67433948  0.99486698    -0.43200
N1074       N  0.30749185  0.70987117  0.90377639    -0.43700
N1075       N  0.31067985  0.63660597  0.86953500    -0.41000
N1076       N  0.21881582  0.70709276  0.90551036    -0.42500
H1077       H  0.24030332  0.68613914  0.86317143     0.13700
H1078       H  0.28996363  0.65870720  0.91234498     0.10200
H1079       H  0.24097613  0.67063396  0.94258802     0.11200
H1080       H  0.29943194  0.71730027  0.95517314     0.17100
C1081       C  0.24097957  0.71622623  0.12234919    -0.01200
C1082       C  0.23325147  0.73035679  0.10827262     0.07400
C1083       C  0.22068538  0.74601215  0.11564484    -0.07100
C1084       C  0.21623361  0.74799284  0.13650428     0.04900
C1085       C  0.22420616  0.73396779  0.15047337    -0.14300
C1086       C  0.23646485  0.71818960  0.14309452    -0.07700
C1087       C  0.23726378  0.72853672  0.08585064     0.05800
C1088       C  0.23244369  0.71019655  0.07558460    -0.08800
C1089       C  0.23475379  0.70819598  0.05439969     0.00800
C1090       C  0.24263414  0.72454134  0.04298249     0.00700
C1091       C  0.24706870  0.74298617  0.05317943    -0.12400
C1092       C  0.24464462  0.74508675  0.07431065     0.01100
C1093       C  0.22783324  0.68956725  0.04472003     0.40500
C1094       C  0.24926978  0.76464174  0.08354222     0.37100
C1095       C  0.25337978  0.69930371  0.11613435     0.36800
C1096       C  0.20270643  0.76391575  0.14301727     0.37600
N1097       N  0.22203548  0.67445932  0.03746141    -0.43200
N1098       N  0.25279612  0.78045121  0.09075215    -0.43700
N1099       N  0.19177723  0.77659934  0.14826313    -0.41000
N1100       N  0.26294574  0.68530231  0.11162044    -0.42500
H1101       H  0.24276545  0.70734375  0.15367065     0.13700
H1102       H  0.21398857  0.75653415  0.10500686     0.10200
H1103       H  0.22597202  0.69762137  0.08403289     0.11200
H1104       H  0.25182471  0.75608790  0.04439211     0.17100
C1105       C  0.27999449  0.76108243  0.95076391    -0.01200
C1106       C  0.26925045  0.75737653  0.93239383     0.07400
C1107       C  0.25164641  0.74525298  0.93287874    -0.07100
C1108       C  0.24420870  0.73751740  0.95115235     0.04900
C1109       C  0.25459913  0.74152139  0.96969598    -0.14300
C1110       C  0.27261249  0.75316474  0.96925090    -0.07700
C1111       C  0.27572604  0.76543926  0.91218640     0.05800
C1112       C  0.29365996  0.75841235  0.90320908    -0.08800
C1113       C  0.29746464  0.76119505  0.88232413     0.00800
C1114       C  0.28318975  0.77146733  0.87005369     0.00700
C1115       C  0.26622476  0.78013224  0.87960312    -0.12400
C1116       C  0.26248888  0.77731501  0.90039966     0.01100
C1117       C  0.31528165  0.75190884  0.87371394     0.40500
C1118       C  0.24466933  0.78637922  0.90927670     0.37100
C1119       C  0.29810974  0.77356708  0.95112602     0.36800
C1120       C  0.22599381  0.72510585  0.95040506     0.37600
N1121       N  0.32954907  0.74436816  0.86687087    -0.43200
N1122       N  0.23044273  0.79370089  0.91643635    -0.43700
N1123       N  0.21138472  0.71518591  0.95010059    -0.41000
N1124       N  0.31262738  0.78361764  0.95146914    -0.42500
H1125       H  0.28060286  0.75649763  0.98337672     0.13700
H1126       H  0.24357067  0.74189215  0.91880011     0.10200
H1127       H  0.30412599  0.74967532  0.91227175     0.11200
H1128       H  0.25541136  0.78858781  0.87063939     0.17100
C1129       C  0.12980603  0.72741778  0.32622958    -0.01200
C1130       C  0.11889551  0.74023686  0.31319822     0.07400
C1131       C  0.12913077  0.75607981  0.30325892    -0.07100
C1132       C  0.15026430  0.75816282  0.30472674     0.04900
C1133       C  0.16144928  0.74400458  0.31615366    -0.14300
C1134       C  0.15093611  0.72927987  0.32750603    -0.07700
C1135       C  0.09864948  0.73388346  0.30546326     0.05800
C1136       C  0.08081285  0.74215917  0.31355439    -0.08800
C1137       C  0.06173086  0.73616178  0.30575021     0.00800
C1138       C  0.06053291  0.72168517  0.28968369     0.00700
C1139       C  0.07846197  0.71320540  0.28203946    -0.12400
C1140       C  0.09734881  0.71927513  0.28964278     0.01100
C1141       C  0.04369809  0.74452535  0.31482746     0.40500
C1142       C  0.11537184  0.71027962  0.28109636     0.37100
C1143       C  0.11974041  0.71124259  0.33712852     0.36800
C1144       C  0.16015086  0.77360733  0.29269874     0.37600
N1145       N  0.02925011  0.75126869  0.32211320    -0.43200
N1146       N  0.13003800  0.70324093  0.27459205    -0.43700
N1147       N  0.16804578  0.78597977  0.28301918    -0.41000
N1148       N  0.11161585  0.69831812  0.34586567    -0.42500
H1149       H  0.15933410  0.71858366  0.33665945     0.13700
H1150       H  0.12083432  0.76577664  0.29299225     0.10200
H1151       H  0.08181473  0.75326784  0.32586638     0.11200
H1152       H  0.07767865  0.70185741  0.26991422     0.17100
C1153       C  0.07714772  0.73028317  0.22634996    -0.01200
C1154       C  0.09582540  0.73946862  0.23208046     0.07400
C1155       C  0.09628495  0.75297879  0.24871256    -0.07100
C1156       C  0.07869622  0.75807346  0.25918528     0.04900
C1157       C  0.05987098  0.74887962  0.25372765    -0.14300
C1158       C  0.05939135  0.73476805  0.23742442    -0.07700
C1159       C  0.11531951  0.73657284  0.22099130     0.05800
C1160       C  0.12513852  0.75402098  0.21354524    -0.08800
C1161       C  0.14582166  0.75398659  0.20883480     0.00800
C1162       C  0.15729733  0.73608408  0.21157708     0.00700
C1163       C  0.14690973  0.71804568  0.21691253    -0.12400
C1164       C  0.12610660  0.71815985  0.22158152     0.01100
C1165       C  0.15481967  0.77286280  0.20202434     0.40500
C1166       C  0.11652505  0.69950428  0.22812465     0.37100
C1167       C  0.07561855  0.71731162  0.20852328     0.36800
C1168       C  0.08064808  0.77285860  0.27556110     0.37600
N1169       N  0.16192503  0.78805162  0.19661109    -0.43200
N1170       N  0.10880983  0.68450462  0.23323454    -0.43700
N1171       N  0.08225253  0.78482524  0.28856009    -0.41000
N1172       N  0.07436826  0.70698816  0.19415991    -0.42500
H1173       H  0.04501966  0.72801450  0.23275052     0.13700
H1174       H  0.11057957  0.75999827  0.25331147     0.10200
H1175       H  0.11683805  0.76817144  0.21270597     0.11200
H1176       H  0.15524061  0.70401611  0.21858237     0.17100
C1177       C  0.62706243  0.68123741  0.24554994    -0.01200
C1178       C  0.61833849  0.69698081  0.25735260     0.07400
C1179       C  0.63052229  0.70757149  0.27155356    -0.07100
C1180       C  0.65114801  0.70308815  0.27379703     0.04900
C1181       C  0.65987679  0.68727194  0.26208399    -0.14300
C1182       C  0.64769165  0.67665278  0.24786417    -0.07700
C1183       C  0.59635115  0.70192661  0.25597515     0.05800
C1184       C  0.58393921  0.69775753  0.27275441    -0.08800
C1185       C  0.56292235  0.70060744  0.27181816     0.00800
C1186       C  0.55395325  0.70884743  0.25418719     0.00700
C1187       C  0.56642067  0.71288341  0.23732606    -0.12400
C1188       C  0.58744587  0.70981906  0.23817061     0.01100
C1189       C  0.55079835  0.69314782  0.28844782     0.40500
C1190       C  0.59947479  0.71466492  0.22050590     0.37100
C1191       C  0.61500385  0.66912001  0.23148528     0.36800
C1192       C  0.66328695  0.71586477  0.28720713     0.37600
N1193       N  0.54142203  0.68659172  0.30177491    -0.43200
N1194       N  0.60909741  0.71862877  0.20634574    -0.43700
N1195       N  0.67302162  0.72629858  0.29776037    -0.41000
N1196       N  0.60532873  0.65940140  0.22022290    -0.42500
H1197       H  0.65425886  0.66457179  0.23870525     0.13700
H1198       H  0.62396163  0.71967587  0.28066043     0.10200
H1199       H  0.59059649  0.69126678  0.28631427     0.11200
H1200       H  0.55957272  0.71797716  0.22325083     0.17100
C1201       C  0.72004159  0.58508218  0.28276709    -0.01200
C1202       C  0.72467395  0.57503621  0.26428634     0.07400
C1203       C  0.72071561  0.58504267  0.24595082    -0.07100
C1204       C  0.71609516  0.60575709  0.24579261     0.04900
C1205       C  0.71578662  0.61697569  0.26435138    -0.14300
C1206       C  0.71627310  0.60610050  0.28273737    -0.07700
C1207       C  0.73664743  0.55587988  0.26337227     0.05800
C1208       C  0.72906085  0.53759543  0.27149961    -0.08800
C1209       C  0.73926802  0.51910291  0.26826756     0.00800
C1210       C  0.75730823  0.51883079  0.25675951     0.00700
C1211       C  0.76535512  0.53727830  0.24972780    -0.12400
C1212       C  0.75546578  0.55562661  0.25307162     0.01100
C1213       C  0.72997931  0.50047992  0.27521759     0.40500
C1214       C  0.76464503  0.57388596  0.24490869     0.37100
C1215       C  0.71991891  0.57446519  0.30190618     0.36800
C1216       C  0.71241375  0.61501046  0.22628669     0.37600
N1217       N  0.72245137  0.48557730  0.28081831    -0.43200
N1218       N  0.77198094  0.58846878  0.23830485    -0.43700
N1219       N  0.70930479  0.62230789  0.21062946    -0.41000
N1220       N  0.71976014  0.56593618  0.31724345    -0.42500
H1221       H  0.71463013  0.61411178  0.29715901     0.13700
H1222       H  0.72272278  0.57695357  0.23160244     0.10200
H1223       H  0.71462686  0.53755206  0.27935380     0.11200
H1224       H  0.77892911  0.53716618  0.24042204     0.17100
C1225       C  0.91033022  0.69914167  0.24899498    -0.01200
C1226       C  0.92374718  0.69343902  0.26480099     0.07400
C1227       C  0.91550155  0.68269885  0.28141783    -0.07100
C1228       C  0.89463680  0.67824116  0.28272715     0.04900
C1229       C  0.88134393  0.68448976  0.26716452    -0.14300
C1230       C  0.88955491  0.69464919  0.25033321    -0.07700
C1231       C  0.94596113  0.69930221  0.26521470     0.05800
C1232       C  0.95434840  0.70683965  0.28358941    -0.08800
C1233       C  0.97522865  0.71060342  0.28563084     0.00800
C1234       C  0.98802179  0.70981306  0.26841434     0.00700
C1235       C  0.97975274  0.70247860  0.24998558    -0.12400
C1236       C  0.95932898  0.69615543  0.24858627     0.01100
C1237       C  0.98345259  0.71359469  0.30590524     0.40500
C1238       C  0.95350989  0.68385528  0.23112964     0.37100
C1239       C  0.91714060  0.70921629  0.23086289     0.36800
C1240       C  0.88742533  0.66667041  0.29986571     0.37600
N1241       N  0.99003614  0.71593575  0.32213510    -0.43200
N1242       N  0.94898744  0.67387169  0.21716756    -0.43700
N1243       N  0.88165445  0.65730182  0.31355119    -0.41000
N1244       N  0.92239022  0.71623692  0.21566281    -0.42500
H1245       H  0.87958247  0.69945866  0.23816201     0.13700
H1246       H  0.92544588  0.67765191  0.29349299     0.10200
H1247       H  0.94475186  0.70863568  0.29685988     0.11200
H1248       H  0.98985410  0.69949396  0.23730292     0.17100
C1249       C  0.80139823  0.54759143  0.30193570    -0.01200
C1250       C  0.80930679  0.55367071  0.28304463     0.07400
C1251       C  0.81239313  0.53848920  0.26812325    -0.07100
C1252       C  0.80522203  0.51838499  0.27100590     0.04900
C1253       C  0.79250882  0.51390704  0.28784742    -0.14300
C1254       C  0.79165144  0.52876007  0.30356256    -0.07700
C1255       C  0.81255157  0.57579011  0.27837634     0.05800
C1256       C  0.83054977  0.58268112  0.26902541    -0.08800
C1257       C  0.83375760  0.60357622  0.26521205     0.00800
C1258       C  0.81875430  0.61774563  0.27069442     0.00700
C1259       C  0.80071497  0.61085779  0.27933415    -0.12400
C1260       C  0.79741876  0.59029407  0.28302993     0.01100
C1261       C  0.85276340  0.61024330  0.25659422     0.40500
C1262       C  0.77832117  0.58477997  0.29204523     0.37100
C1263       C  0.80316738  0.56038037  0.31995753     0.36800
C1264       C  0.81206429  0.50288533  0.25702774     0.37600
N1265       N  0.86802676  0.61563065  0.24973949    -0.43200
N1266       N  0.76338434  0.58036305  0.30006003    -0.43700
N1267       N  0.81816362  0.49076243  0.24575738    -0.41000
N1268       N  0.80460863  0.57057503  0.33439633    -0.42500
H1269       H  0.78339003  0.52604587  0.31745477     0.13700
H1270       H  0.82008621  0.54234160  0.25408945     0.10200
H1271       H  0.84229613  0.57187175  0.26522690     0.11200
H1272       H  0.78910124  0.62175740  0.28344761     0.17100
C1273       C  0.62722719  0.77738726  0.27794934    -0.01200
C1274       C  0.61887722  0.76325434  0.26375849     0.07400
C1275       C  0.63186287  0.75283774  0.25050746    -0.07100
C1276       C  0.65273632  0.75632080  0.25091680     0.04900
C1277       C  0.66110839  0.77081348  0.26466554    -0.14300
C1278       C  0.64826862  0.78089430  0.27842334    -0.07700
C1279       C  0.59668832  0.76017929  0.26090638     0.05800
C1280       C  0.58847302  0.76418385  0.24163276    -0.08800
C1281       C  0.56779983  0.76144568  0.23771951     0.00800
C1282       C  0.55481174  0.75456650  0.25326652     0.00700
C1283       C  0.56297314  0.75055576  0.27260458    -0.12400
C1284       C  0.58383444  0.75273484  0.27636417     0.01100
C1285       C  0.56025546  0.76588291  0.21761330     0.40500
C1286       C  0.59167455  0.74679866  0.29594627     0.37100
C1287       C  0.61454973  0.78912294  0.29148335     0.36800
C1288       C  0.66524356  0.74411057  0.23762019     0.37600
N1289       N  0.55446015  0.76940740  0.20138985    -0.43200
N1290       N  0.59792178  0.74192966  0.31162977    -0.43700
N1291       N  0.67522821  0.73420818  0.22705267    -0.41000
N1292       N  0.60444311  0.79849666  0.30241693    -0.42500
H1293       H  0.65461693  0.79191225  0.28916360     0.13700
H1294       H  0.62562079  0.74186419  0.23972750     0.10200
H1295       H  0.59828464  0.76966126  0.22959042     0.11200
H1296       H  0.55296050  0.74583693  0.28480144     0.17100
C1297       C  0.95441070  0.75972828  0.28696355    -0.01200
C1298       C  0.94625897  0.76616334  0.26799119     0.07400
C1299       C  0.95960069  0.76705846  0.25127053    -0.07100
C1300       C  0.97971740  0.76072410  0.25286092     0.04900
C1301       C  0.98794518  0.75620901  0.27210092    -0.14300
C1302       C  0.97529325  0.75678597  0.28910624    -0.07700
C1303       C  0.92431511  0.77225208  0.26585178     0.05800
C1304       C  0.91488666  0.78249997  0.28221999    -0.08800
C1305       C  0.89382264  0.78479334  0.28306784     0.00800
C1306       C  0.88162821  0.77773342  0.26671944     0.00700
C1307       C  0.89114827  0.77001269  0.24925163    -0.12400
C1308       C  0.91216498  0.76760558  0.24843675     0.01100
C1309       C  0.88530378  0.79460482  0.30083549     0.40500
C1310       C  0.92034427  0.76186223  0.22889988     0.37100
C1311       C  0.94192901  0.75548349  0.30449862     0.36800
C1312       C  0.99223996  0.76081989  0.23481661     0.37600
N1313       N  0.87856568  0.80244888  0.31513022    -0.43200
N1314       N  0.92661872  0.75844671  0.21278065    -0.43700
N1315       N  0.00233145  0.76076722  0.22041979    -0.41000
N1316       N  0.93199795  0.75198818  0.31857052    -0.42500
H1317       H  0.98173591  0.75459501  0.30412227     0.13700
H1318       H  0.95491959  0.77351124  0.23701211     0.10200
H1319       H  0.92398246  0.78850545  0.29472090     0.11200
H1320       H  0.88208296  0.76561744  0.23606689     0.17100
C1321       C  0.75821230  0.23797070  0.61815897    -0.01200
C1322       C  0.75268806  0.22166188  0.60494931     0.07400
C1323       C  0.74259617  0.20469192  0.61322110    -0.07100
C1324       C  0.73864727  0.20338030  0.63412741     0.04900
C1325       C  0.74460079  0.21946974  0.64741001    -0.14300
C1326       C  0.75401751  0.23678343  0.63905181    -0.07700
C1327       C  0.75840645  0.22092500  0.58288423     0.05800
C1328       C  0.76779365  0.20323015  0.57539510    -0.08800
C1329       C  0.77198028  0.20074978  0.55465471     0.00800
C1330       C  0.76864997  0.21692042  0.54113173     0.00700
C1331       C  0.75918542  0.23456561  0.54839655    -0.12400
C1332       C  0.75347850  0.23643609  0.56892720     0.01100
C1333       C  0.77850685  0.18103380  0.54739278     0.40500
C1334       C  0.74097893  0.25344524  0.57470422     0.37100
C1335       C  0.76872878  0.25587734  0.61098006     0.36800
C1336       C  0.72838765  0.18533067  0.64135342     0.37600
N1337       N  0.78356390  0.16519859  0.54154158    -0.43200
N1338       N  0.73092492  0.26709058  0.57925316    -0.43700
N1339       N  0.72019465  0.17081600  0.64706947    -0.41000
N1340       N  0.77689736  0.27041673  0.60528035    -0.42500
H1341       H  0.75874665  0.24927067  0.64898333     0.13700
H1342       H  0.73797818  0.19217886  0.60326361     0.10200
H1343       H  0.77118098  0.19090988  0.58569512     0.11200
H1344       H  0.75517914  0.24637940  0.53773609     0.17100
C1345       C  0.81698222  0.22332538  0.58512465    -0.01200
C1346       C  0.82543500  0.20390180  0.58748254     0.07400
C1347       C  0.82826706  0.19148157  0.57012281    -0.07100
C1348       C  0.82368305  0.19875706  0.55046822     0.04900
C1349       C  0.81539704  0.21834548  0.54819803    -0.14300
C1350       C  0.81173407  0.23017615  0.56579487    -0.07700
C1351       C  0.83234456  0.19760663  0.60811773     0.05800
C1352       C  0.81915791  0.18612110  0.62031740    -0.08800
C1353       C  0.82195418  0.18531409  0.64155466     0.00800
C1354       C  0.83801243  0.19644606  0.65090819     0.00700
C1355       C  0.85195830  0.20674316  0.63849953    -0.12400
C1356       C  0.84940905  0.20716842  0.61728926     0.01100
C1357       C  0.80702537  0.17461746  0.65354562     0.40500
C1358       C  0.86356005  0.21893433  0.60533529     0.37100
C1359       C  0.81527260  0.23711864  0.60232042     0.36800
C1360       C  0.82864709  0.18648830  0.53284618     0.37600
N1361       N  0.79504505  0.16607236  0.66316921    -0.43200
N1362       N  0.87482994  0.22840551  0.59571902    -0.43700
N1363       N  0.83256739  0.17672597  0.51863673    -0.41000
N1364       N  0.81471297  0.24789253  0.61637219    -0.42500
H1365       H  0.80577426  0.24542649  0.56429641     0.13700
H1366       H  0.83496230  0.17659380  0.57182808     0.10200
H1367       H  0.80583403  0.17903386  0.61344813     0.11200
H1368       H  0.86444795  0.21516321  0.64547691     0.17100
C1369       C  0.79253342  0.18543882  0.40276932    -0.01200
C1370       C  0.80904053  0.17725190  0.41365627     0.07400
C1371       C  0.82493291  0.16834479  0.40254750    -0.07100
C1372       C  0.82435935  0.16739830  0.38099905     0.04900
C1373       C  0.80756254  0.17530507  0.37023752    -0.14300
C1374       C  0.79189554  0.18430973  0.38148626    -0.07700
C1375       C  0.80855140  0.17716856  0.43649424     0.05800
C1376       C  0.79281336  0.16632442  0.44580259    -0.08800
C1377       C  0.78651221  0.17141140  0.46550710     0.00800
C1378       C  0.79496503  0.18873452  0.47571939     0.00700
C1379       C  0.81367176  0.19603216  0.46848709    -0.12400
C1380       C  0.82057574  0.19030723  0.44889698     0.01100
C1381       C  0.77120236  0.15864682  0.47477360     0.40500
C1382       C  0.83993079  0.19788937  0.44206982     0.37100
C1383       C  0.77601429  0.19539646  0.41313356     0.36800
C1384       C  0.84070926  0.15747147  0.37039701     0.37600
N1385       N  0.75900866  0.14835890  0.48221166    -0.43200
N1386       N  0.85573204  0.20370440  0.43698553    -0.43700
N1387       N  0.85379566  0.14945417  0.36189042    -0.41000
N1388       N  0.76272413  0.20327658  0.42142318    -0.42500
H1389       H  0.77905498  0.19077892  0.37357784     0.13700
H1390       H  0.83758148  0.16182411  0.41069048     0.10200
H1391       H  0.78452338  0.15478196  0.43713347     0.11200
H1392       H  0.82250053  0.20665813  0.47756948     0.17100
C1393       C  0.80008695  0.37575649  0.21102758    -0.01200
C1394       C  0.78915921  0.38350867  0.22787657     0.07400
C1395       C  0.77900865  0.36977012  0.24063208    -0.07100
C1396       C  0.77969073  0.34876845  0.23706817     0.04900
C1397       C  0.79053618  0.34099783  0.22023722    -0.14300
C1398       C  0.80098064  0.35460224  0.20755550    -0.07700
C1399       C  0.78617597  0.40572987  0.23162898     0.05800
C1400       C  0.76623491  0.41297291  0.23145549    -0.08800
C1401       C  0.76217177  0.43355048  0.23493512     0.00800
C1402       C  0.77812714  0.44727847  0.23978975     0.00700
C1403       C  0.79807401  0.44018089  0.23994155    -0.12400
C1404       C  0.80226324  0.41964570  0.23576880     0.01100
C1405       C  0.74151567  0.44037178  0.23284526     0.40500
C1406       C  0.82322276  0.41367578  0.23518116     0.37100
C1407       C  0.80927490  0.38915830  0.19633508     0.36800
C1408       C  0.76948426  0.33546920  0.25122385     0.37600
N1409       N  0.72498271  0.44583474  0.23108963    -0.43200
N1410       N  0.84017965  0.40937227  0.23443347    -0.43700
N1411       N  0.76136720  0.32481754  0.26260007    -0.41000
N1412       N  0.81659652  0.39992473  0.18454010    -0.42500
H1413       H  0.80914960  0.34874588  0.19446309     0.13700
H1414       H  0.77033449  0.37552571  0.25341210     0.10200
H1415       H  0.75378581  0.40255108  0.22801938     0.11200
H1416       H  0.81047255  0.45082388  0.24261609     0.17100
C1417       C  0.80014017  0.36615555  0.28920023    -0.01200
C1418       C  0.78391583  0.37824184  0.29638721     0.07400
C1419       C  0.76940176  0.36901132  0.30917250    -0.07100
C1420       C  0.77044743  0.34835243  0.31418299     0.04900
C1421       C  0.78682272  0.33660360  0.30718633    -0.14300
C1422       C  0.80167156  0.34584407  0.29508219    -0.07700
C1423       C  0.78090751  0.40004751  0.29047315     0.05800
C1424       C  0.76119359  0.40634928  0.28526074    -0.08800
C1425       C  0.75658515  0.42699855  0.28311288     0.00800
C1426       C  0.77218477  0.44177496  0.28400540     0.00700
C1427       C  0.79207666  0.43548638  0.28799930    -0.12400
C1428       C  0.79641022  0.41508536  0.29206274     0.01100
C1429       C  0.73558801  0.43274548  0.28145645     0.40500
C1430       C  0.81621216  0.41073395  0.30024109     0.37100
C1431       C  0.81493945  0.37327118  0.27479450     0.36800
C1432       C  0.75449289  0.33963716  0.32643277     0.37600
N1433       N  0.71869822  0.43720585  0.28030808    -0.43200
N1434       N  0.83213742  0.40746526  0.30681413    -0.43700
N1435       N  0.74159459  0.33263223  0.33610110    -0.41000
N1436       N  0.82738626  0.37807311  0.26340640    -0.42500
H1437       H  0.81403882  0.33677054  0.28915602     0.13700
H1438       H  0.75693397  0.37791749  0.31508840     0.10200
H1439       H  0.74900671  0.39517960  0.28411270     0.11200
H1440       H  0.80392522  0.44693761  0.28999462     0.17100
C1441       C  0.80534671  0.24753366  0.39715323    -0.01200
C1442       C  0.79326190  0.25673251  0.41246755     0.07400
C1443       C  0.77995705  0.27235135  0.40667813    -0.07100
C1444       C  0.77870228  0.27864636  0.38626730     0.04900
C1445       C  0.79145263  0.26979770  0.37150256    -0.14300
C1446       C  0.80451783  0.25430380  0.37718188    -0.07700
C1447       C  0.79610324  0.25169968  0.43451589     0.05800
C1448       C  0.81596793  0.25146511  0.44212012    -0.08800
C1449       C  0.82006540  0.24629564  0.46219684     0.00800
C1450       C  0.80403389  0.24222793  0.47590999     0.00700
C1451       C  0.78399650  0.24318658  0.46871302    -0.12400
C1452       C  0.77991490  0.24755158  0.44811326     0.01100
C1453       C  0.84111545  0.24501714  0.46824470     0.40500
C1454       C  0.75905882  0.24768212  0.44142582     0.37100
C1455       C  0.81914322  0.23119241  0.40101273     0.36800
C1456       C  0.76493351  0.29468538  0.38098269     0.37600
N1457       N  0.85795423  0.24390732  0.47306839    -0.43200
N1458       N  0.74230862  0.24780539  0.43612467    -0.43700
N1459       N  0.75390134  0.30755361  0.37671591    -0.41000
N1460       N  0.83081521  0.21837269  0.40296761    -0.42500
H1461       H  0.81395024  0.24705854  0.36571783     0.13700
H1462       H  0.77095468  0.28004907  0.41813930     0.10200
H1463       H  0.82854945  0.25541021  0.43226911     0.11200
H1464       H  0.77154956  0.24099813  0.47922666     0.17100
C1465       C  0.81006758  0.03730674  0.28172177    -0.01200
C1466       C  0.79665658  0.05384554  0.28325971     0.07400
C1467       C  0.77592940  0.05060192  0.27987157    -0.07100
C1468       C  0.76818909  0.03109022  0.27631649     0.04900
C1469       C  0.78139272  0.01430584  0.27514955    -0.14300
C1470       C  0.80232018  0.01761222  0.27780539    -0.07700
C1471       C  0.80297883  0.07444704  0.29032869     0.05800
C1472       C  0.81127311  0.08811762  0.27631615    -0.08800
C1473       C  0.81269418  0.10897331  0.28103990     0.00800
C1474       C  0.80562264  0.11632709  0.30004524     0.00700
C1475       C  0.79823038  0.10248305  0.31437612    -0.12400
C1476       C  0.79704644  0.08165466  0.30974496     0.01100
C1477       C  0.81969438  0.12268034  0.26545323     0.40500
C1478       C  0.78878083  0.06799997  0.32477702     0.37100
C1479       C  0.83148918  0.03993571  0.28552260     0.36800
C1480       C  0.74641038  0.02847272  0.27535404     0.37600
N1481       N  0.82519958  0.13360106  0.25285579    -0.43200
N1482       N  0.78216221  0.05701436  0.33677817    -0.43700
N1483       N  0.72897584  0.02643511  0.27457286    -0.41000
N1484       N  0.84868715  0.04190389  0.28860995    -0.42500
H1485       H  0.81241277  0.00468191  0.27802013     0.13700
H1486       H  0.76558089  0.06327418  0.28125401     0.10200
H1487       H  0.81541585  0.08268584  0.26123625     0.11200
H1488       H  0.79286444  0.10803234  0.32900527     0.17100
C1489       C  0.73020005  0.91878619  0.25525803    -0.01200
C1490       C  0.73799830  0.90267357  0.26687955     0.07400
C1491       C  0.75400299  0.90646073  0.28044548    -0.07100
C1492       C  0.76199095  0.92600294  0.28302312     0.04900
C1493       C  0.75442333  0.94224505  0.27133086    -0.14300
C1494       C  0.73846550  0.93850766  0.25755591    -0.07700
C1495       C  0.73030302  0.88147671  0.26512120     0.05800
C1496       C  0.73440563  0.87035459  0.24733473    -0.08800
C1497       C  0.73101368  0.84928936  0.24643958     0.00800
C1498       C  0.72305997  0.83901391  0.26362669     0.00700
C1499       C  0.71813661  0.85044928  0.28110461    -0.12400
C1500       C  0.72176260  0.87145999  0.28200046     0.01100
C1501       C  0.73735464  0.83860836  0.22822754     0.40500
C1502       C  0.71721679  0.88235904  0.30064104     0.37100
C1503       C  0.71344343  0.91548502  0.24139527     0.36800
C1504       C  0.77791554  0.92902766  0.29797224     0.37600
N1505       N  0.74257321  0.83012706  0.21363844    -0.43200
N1506       N  0.71367188  0.89109608  0.31559811    -0.43700
N1507       N  0.79066312  0.93146074  0.30993071    -0.41000
N1508       N  0.70000903  0.91277769  0.23028005    -0.42500
H1509       H  0.73213963  0.95103244  0.24908755     0.13700
H1510       H  0.76013935  0.89405477  0.28924895     0.10200
H1511       H  0.74135456  0.87799095  0.23450392     0.11200
H1512       H  0.71195939  0.84288631  0.29435536     0.17100
C1513       C  0.79050354  0.08506495  0.20483628    -0.01200
C1514       C  0.78056784  0.07735436  0.22222743     0.07400
C1515       C  0.77242983  0.09098815  0.23651244    -0.07100
C1516       C  0.77364364  0.11199990  0.23350794     0.04900
C1517       C  0.78350382  0.11970996  0.21609179    -0.14300
C1518       C  0.79214301  0.10614515  0.20205549    -0.07700
C1519       C  0.77847874  0.05514105  0.22575215     0.05800
C1520       C  0.79604352  0.04348699  0.22774327    -0.08800
C1521       C  0.79474402  0.02237479  0.22998403     0.00800
C1522       C  0.77556210  0.01265922  0.23117841     0.00700
C1523       C  0.75800751  0.02424986  0.22898164    -0.12400
C1524       C  0.75929676  0.04540391  0.22661809     0.01100
C1525       C  0.81329048  0.01085563  0.23046064     0.40500
C1526       C  0.74077147  0.05667282  0.22437079     0.37100
C1527       C  0.79832611  0.07165230  0.18922172     0.36800
C1528       C  0.76513480  0.12533717  0.24882444     0.37600
N1529       N  0.82812945  0.00161838  0.23089161    -0.43200
N1530       N  0.72592229  0.06573455  0.22265614    -0.43700
N1531       N  0.75829337  0.13597519  0.26112048    -0.41000
N1532       N  0.80449999  0.06088288  0.17667363    -0.42500
H1533       H  0.79963871  0.11201383  0.18861783     0.13700
H1534       H  0.76504212  0.08517608  0.25002202     0.10200
H1535       H  0.81081375  0.05087219  0.22708973     0.11200
H1536       H  0.74330366  0.01669477  0.22875807     0.17100
C1537       C  0.82168705  0.86976709  0.24440147    -0.01200
C1538       C  0.81100377  0.88113688  0.25906766     0.07400
C1539       C  0.80569420  0.87213248  0.27758765    -0.07100
C1540       C  0.80979191  0.85154025  0.28110198     0.04900
C1541       C  0.81932178  0.83971142  0.26575060    -0.14300
C1542       C  0.82581564  0.84930501  0.24785303    -0.07700
C1543       C  0.80268678  0.90123309  0.25387588     0.05800
C1544       C  0.78684551  0.90164944  0.23969331    -0.08800
C1545       C  0.77907619  0.92006648  0.23305450     0.00800
C1546       C  0.78672298  0.93867024  0.24127426     0.00700
C1547       C  0.80255899  0.93825670  0.25560079    -0.12400
C1548       C  0.81069345  0.91964495  0.26181867     0.01100
C1549       C  0.76318196  0.91931203  0.21783928     0.40500
C1550       C  0.82755490  0.91974394  0.27585034     0.37100
C1551       C  0.82770917  0.87858011  0.22525415     0.36800
C1552       C  0.80275871  0.84277437  0.29991787     0.37600
N1553       N  0.75053110  0.91860490  0.20558666    -0.43200
N1554       N  0.84111714  0.91978667  0.28707113    -0.43700
N1555       N  0.79709820  0.83584010  0.31503563    -0.41000
N1556       N  0.83245088  0.88567010  0.20990208    -0.42500
H1557       H  0.83344213  0.84057871  0.23608296     0.13700
H1558       H  0.79738395  0.88090908  0.28883298     0.10200
H1559       H  0.78079564  0.88744326  0.23349236     0.11200
H1560       H  0.80887632  0.95244591  0.26152107     0.17100
C1561       C  0.76064149  0.25138662  0.08576964    -0.01200
C1562       C  0.77488150  0.26749876  0.08732769     0.07400
C1563       C  0.78436193  0.27456959  0.06956970    -0.07100
C1564       C  0.77951253  0.26601210  0.05037259     0.04900
C1565       C  0.76556992  0.24956465  0.04892973    -0.14300
C1566       C  0.75619617  0.24259123  0.06679487    -0.07700
C1567       C  0.78026401  0.27630827  0.10765883     0.05800
C1568       C  0.79901397  0.27148893  0.11632908    -0.08800
C1569       C  0.80261498  0.27444786  0.13725733     0.00800
C1570       C  0.78722634  0.28263609  0.14986969     0.00700
C1571       C  0.76924683  0.28934404  0.14062706    -0.12400
C1572       C  0.76576043  0.28640745  0.11972551     0.01100
C1573       C  0.82160792  0.26745583  0.14546310     0.40500
C1574       C  0.74687356  0.29318330  0.11107279     0.37100
C1575       C  0.75034613  0.24366460  0.10352979     0.36800
C1576       C  0.78807465  0.27512167  0.03240601     0.37600
N1577       N  0.83681899  0.26173916  0.15198292    -0.43200
N1578       N  0.73176965  0.29865868  0.10410660    -0.43700
N1579       N  0.79484505  0.28259279  0.01802397    -0.41000
N1580       N  0.74200077  0.23790404  0.11787634    -0.42500
H1581       H  0.74533230  0.23009024  0.06592088     0.13700
H1582       H  0.79519018  0.28707112  0.07067270     0.10200
H1583       H  0.81038936  0.26418934  0.10695099     0.11200
H1584       H  0.75752030  0.29625647  0.14987115     0.17100
C1585       C  0.76259744  0.20241463  0.89845592    -0.01200
C1586       C  0.75103449  0.21458682  0.91193112     0.07400
C1587       C  0.73484750  0.22582289  0.90392128    -0.07100
C1588       C  0.73036036  0.22543937  0.88304174     0.04900
C1589       C  0.74193048  0.21332448  0.86968898    -0.14300
C1590       C  0.75777090  0.20170042  0.87763426    -0.07700
C1591       C  0.75569458  0.21685080  0.93416687     0.05800
C1592       C  0.75804329  0.23662569  0.94228378    -0.08800
C1593       C  0.75986346  0.24009231  0.96326386     0.00800
C1594       C  0.76018571  0.22353880  0.97675331     0.00700
C1595       C  0.75769662  0.20373001  0.96877447    -0.12400
C1596       C  0.75548088  0.20024541  0.94771466     0.01100
C1597       C  0.76018951  0.26087410  0.97074662     0.40500
C1598       C  0.75112920  0.17975020  0.94071290     0.37100
C1599       C  0.77987687  0.19097433  0.90516774     0.36800
C1600       C  0.71355968  0.23728146  0.87575476     0.37600
N1601       N  0.76050137  0.27750008  0.97677271    -0.43200
N1602       N  0.74763484  0.16329401  0.93516152    -0.43700
N1603       N  0.70006862  0.24674127  0.86991819    -0.41000
N1604       N  0.79364236  0.18133984  0.90996750    -0.42500
H1605       H  0.76694068  0.19259891  0.86737188     0.13700
H1606       H  0.72572639  0.23510324  0.91405554     0.10200
H1607       H  0.75741067  0.24955500  0.93225432     0.11200
H1608       H  0.75639786  0.19103274  0.97908783     0.17100
C1609       C  0.79890086  0.21282802  0.08678369    -0.01200
C1610       C  0.78531386  0.19615861  0.08701411     0.07400
C1611       C  0.77643705  0.18934626  0.06870608    -0.07100
C1612       C  0.78146913  0.19861932  0.05012961     0.04900
C1613       C  0.79507291  0.21543394  0.04991614    -0.14300
C1614       C  0.80349167  0.22236449  0.06847695    -0.07700
C1615       C  0.78112284  0.18572909  0.10651990     0.05800
C1616       C  0.76384917  0.19113082  0.11762056    -0.08800
C1617       C  0.76281237  0.18777729  0.13869363     0.00800
C1618       C  0.77933763  0.17866941  0.14884033     0.00700
C1619       C  0.79545492  0.17109208  0.13708663    -0.12400
C1620       C  0.79641405  0.17447875  0.11611739     0.01100
C1621       C  0.74545776  0.19542542  0.14959445     0.40500
C1622       C  0.81399942  0.16769257  0.10498283     0.37100
C1623       C  0.80885386  0.21989227  0.10521377     0.36800
C1624       C  0.77358977  0.18961829  0.03159476     0.37600
N1625       N  0.73150068  0.20161056  0.15823482    -0.43200
N1626       N  0.82807656  0.16228200  0.09602462    -0.43700
N1627       N  0.76719812  0.18199960  0.01692813    -0.41000
N1628       N  0.81688932  0.22499967  0.12013197    -0.42500
H1629       H  0.81393990  0.23523143  0.06867632     0.13700
H1630       H  0.76617982  0.17633757  0.06885095     0.10200
H1631       H  0.75186367  0.19933971  0.11008672     0.11200
H1632       H  0.80794416  0.16345039  0.14445967     0.17100
C1633       C  0.80731206  0.24549196  0.89765160    -0.01200
C1634       C  0.81693315  0.23405462  0.91301909     0.07400
C1635       C  0.83165087  0.21982661  0.90705262    -0.07100
C1636       C  0.83673789  0.21682093  0.88653608     0.04900
C1637       C  0.82791246  0.22899778  0.87138115    -0.14300
C1638       C  0.81330442  0.24331285  0.87723717    -0.07700
C1639       C  0.81169016  0.23575702  0.93522576     0.05800
C1640       C  0.80858241  0.21773148  0.94623869    -0.08800
C1641       C  0.80578655  0.21807151  0.96734065     0.00800
C1642       C  0.80467413  0.23680936  0.97793739     0.00700
C1643       C  0.80819585  0.25487246  0.96720402    -0.12400
C1644       C  0.81191563  0.25450928  0.94612038     0.01100
C1645       C  0.80552531  0.19893966  0.97802259     0.40500
C1646       C  0.81790029  0.27332335  0.93658469     0.37100
C1647       C  0.79060175  0.25884750  0.90198001     0.36800
C1648       C  0.85093076  0.20097246  0.88159662     0.37600
N1649       N  0.80548700  0.18364414  0.98660625    -0.43200
N1650       N  0.82273494  0.28842300  0.92897830    -0.43700
N1651       N  0.86207617  0.18797556  0.87788950    -0.41000
N1652       N  0.77729407  0.26981580  0.90497797    -0.42500
H1653       H  0.80582643  0.25221352  0.86564962     0.13700
H1654       H  0.83910856  0.21075497  0.91850923     0.10200
H1655       H  0.80934682  0.20314859  0.93851856     0.11200
H1656       H  0.80905457  0.26921417  0.97553141     0.17100
loop_ 
_geom_bond_atom_site_label_1 
_geom_bond_atom_site_label_2 
_geom_bond_distance 
_geom_bond_site_symmetry_2 
_ccdc_geom_bond_type 
N1            C5   1.369       .  A
N1            C2   1.368       .  A
N1            N8   1.428       .  S
C2            C3   1.382       .  A
C2         C1613   1.492       .  S
C3            C4   1.364       .  A
C3            H6   1.082       .  S
C4            C5   1.380       .  A
C4            H7   1.083       .  S
C5         C1642   1.477   1_554  S
N8           C12   1.369   1_554  A
N8            C9   1.370       .  A
C9           C10   1.381       .  A
C9         C1565   1.490       .  S
C10          C11   1.365       .  A
C10          H13   1.082       .  S
C11          C12   1.380   1_554  A
C11          H14   1.083   1_554  S
C12        C1594   1.477       .  S
N15          C19   1.372       .  A
N15          C16   1.371       .  A
N15          N22   1.437       .  S
C16          C17   1.381       .  A
C16        C1546   1.479       .  S
C17          C18   1.358       .  A
C17          H20   1.082       .  S
C18          C19   1.378       .  A
C18          H21   1.083       .  S
C19        C1522   1.469   1_565  S
N22          C26   1.373       .  A
N22          C23   1.374       .  A
C23          C24   1.378       .  A
C23        C1493   1.475       .  S
C24          C25   1.354       .  A
C24          H27   1.083       .  S
C25          C26   1.379       .  A
C25          H28   1.083       .  S
C26        C1469   1.470   1_565  S
O29          V37   1.899       .  S
O29          C39   1.262       .  A
O30          V37   1.898       .  S
O30          C40   1.264       .  A
O31          V37   1.905       .  S
O31          C41   1.266       .  A
O32          V37   1.901       .  S
O32          C42   1.265       .  A
O33          V38   1.893       .  S
O33          C42   1.264       .  A
O34          V38   1.894       .  S
O34          C41   1.262       .  A
O35          V38   1.902       .  S
O35          C40   1.264       .  A
O36          V38   1.895       .  S
O36          C39   1.265       .  A
V37          V38   2.089       .  T
C39        C1445   1.472       .  S
C40          C55   1.466       .  S
C41          C82   1.465       .  S
C42        C1421   1.479       .  S
O43          V51   1.897       .  S
O43          C53   1.264       .  A
O44          V51   1.898       .  S
O44          C54   1.264       .  A
O45          V51   1.894       .  S
O45          C55   1.262       .  A
O46          V51   1.900       .  S
O46          C56   1.266       .  A
O47          V52   1.906       .  S
O47          C56   1.266       .  A
O48          V52   1.907       .  S
O48          C55   1.266       .  A
O49          V52   1.909       .  S
O49          C54   1.265       .  A
O50          V52   1.910       .  S
O50          C53   1.265       .  A
V51          V52   2.086       .  T
C53        C1397   1.481       .  S
C54          C69   1.471       .  S
C56        C1570   1.492       .  S
O57          V65   1.910       .  S
O57          C67   1.266       .  A
O58          V65   1.905       .  S
O58          C68   1.266       .  A
O59          V65   1.897       .  S
O59          C69   1.263       .  A
O60          V65   1.891       .  S
O60          C70   1.262       .  A
O61          V66   1.905       .  S
O61          C70   1.265       .  A
O62          V66   1.911       .  S
O62          C69   1.266       .  A
O63          V66   1.898       .  S
O63          C68   1.263       .  A
O64          V66   1.894       .  S
O64          C67   1.264       .  A
V65          V66   2.088       .  T
C67        C1618   1.488       .  S
C68          C83   1.468       .  S
C70        C1517   1.473       .  S
O71          V79   1.903       .  S
O71          C81   1.266       .  A
O72          V79   1.900       .  S
O72          C82   1.263       .  A
O73          V79   1.900       .  S
O73          C83   1.263       .  A
O74          V79   1.901       .  S
O74          C84   1.266       .  A
O75          V80   1.919       .  S
O75          C84   1.268       .  A
O76          V80   1.906       .  S
O76          C83   1.266       .  A
O77          V80   1.898       .  S
O77          C82   1.264       .  A
O78          V80   1.901       .  S
O78          C81   1.263       .  A
V79          V80   2.087       .  T
C81        C1474   1.476       .  S
C84        C1373   1.497       .  S
N85          C89   1.374       .  A
N85          C86   1.373       .  A
N85          N92   1.424       .  S
C86          C87   1.381       .  A
C86        C1349   1.489       .  S
C87          C88   1.358       .  A
C87          H90   1.083       .  S
C88          C89   1.380       .  A
C88          H91   1.083       .  S
C89        C1450   1.490       .  S
N92          C96   1.366       .  A
N92          C93   1.374       .  A
C93          C94   1.390       .  A
C93        C1378   1.511       .  S
C94          C95   1.360       .  A
C94          H97   1.082       .  S
C95          C96   1.372       .  A
C95          H98   1.082       .  S
C96        C1330   1.477       .  S
O99         V107   1.892       .  S
O99         C109   1.265       .  A
O100        V107   1.900       .  S
O100        C110   1.263       .  A
O101        V107   1.892       .  S
O101        C111   1.262       .  A
O102        V107   1.891       .  S
O102        C112   1.264       .  A
O103        V108   1.901       .  S
O103        C112   1.265       .  A
O104        V108   1.897       .  S
O104        C111   1.263       .  A
O105        V108   1.902       .  S
O105        C110   1.265       .  A
O106        V108   1.902       .  S
O106        C109   1.264       .  A
V107        V108   2.087       .  T
C109       C1541   1.483       .  S
C110        C139   1.467       .  S
C111        C124   1.458       .  S
C112       C1306   1.482       .  S
O113        V121   1.894       .  S
O113        C123   1.264       .  A
O114        V121   1.894       .  S
O114        C124   1.263       .  A
O115        V121   1.886       .  S
O115        C125   1.260       .  A
O116        V121   1.891       .  S
O116        C126   1.262       .  A
O117        V122   1.903       .  S
O117        C126   1.267       .  A
O118        V122   1.903       .  S
O118        C125   1.265       .  A
O119        V122   1.895       .  S
O119        C124   1.262       .  A
O120        V122   1.900       .  S
O120        C123   1.263       .  A
V121        V122   2.088       .  T
C123       C1277   1.476       .  S
C125        C152   1.458       .  S
C126       C1498   1.485       .  S
O127        V135   1.897       .  S
O127        C137   1.264       .  A
O128        V135   1.905       .  S
O128        C138   1.265       .  A
O129        V135   1.907       .  S
O129        C139   1.266       .  A
O130        V135   1.911       .  S
O130        C140   1.265       .  A
O131        V136   1.889       .  S
O131        C140   1.262       .  A
O132        V136   1.895       .  S
O132        C139   1.262       .  A
O133        V136   1.919       .  S
O133        C138   1.268       .  A
O134        V136   1.914       .  S
O134        C137   1.268       .  A
V135        V136   2.087       .  T
C137       C1229   1.491       .  S
C138        C153   1.482       .  S
C140       C1258   1.471       .  S
O141        V149   1.894       .  S
O141        C151   1.264       .  A
O142        V149   1.892       .  S
O142        C152   1.263       .  A
O143        V149   1.904       .  S
O143        C153   1.265       .  A
O144        V149   1.902       .  S
O144        C154   1.264       .  A
O145        V150   1.909       .  S
O145        C154   1.267       .  A
O146        V150   1.918       .  S
O146        C153   1.268       .  A
O147        V150   1.897       .  S
O147        C152   1.262       .  A
O148        V150   1.908       .  S
O148        C151   1.267       .  A
V149        V150   2.086       .  T
C151       C1205   1.492       .  S
C154       C1181   1.485       .  S
N155        C159   1.374       .  A
N155        C156   1.369       .  A
N155        N162   1.428       .  S
C156        C157   1.377       .  A
C156       C1426   1.479       .  S
C157        C158   1.359       .  A
C157        H160   1.083       .  S
C158        C159   1.389       .  A
C158        H161   1.079       .  S
C159       C1253   1.514       .  S
N162        C166   1.369       .  A
N162        C163   1.368       .  A
C163        C164   1.381       .  A
C163       C1210   1.482       .  S
C164        C165   1.363       .  A
C164        H167   1.083       .  S
C165        C166   1.379       .  A
C165        H168   1.083       .  S
C166       C1402   1.474       .  S
N169        C173   1.372       .  A
N169        C170   1.368       .  A
N169        N176   1.431       .  S
C170        C171   1.381       .  A
C170       C1301   1.472   1_455  S
C171        C172   1.358       .  A
C171        H174   1.083       .  S
C172        C173   1.380       .  A
C172        H175   1.082       .  S
C173       C1157   1.493       .  S
N176        C180   1.373       .  A
N176        C177   1.369       .  A
C177        C178   1.378       .  A
C177       C1138   1.482       .  S
C178        C179   1.363       .  A
C178        H181   1.083       .  S
C179        C180   1.381       .  A
C179        H182   1.083       .  S
C180       C1234   1.482   1_455  S
N183        C187   1.375       .  A
N183        C184   1.370   1_554  A
N183        N190   1.430       .  S
C184        C185   1.381       .  A
C184       C1109   1.492       .  S
C185        C186   1.362   1_556  A
C185        H188   1.082       .  S
C186        C187   1.379       .  A
C186        H189   1.083       .  S
C187       C1090   1.482       .  S
N190        C194   1.369       .  A
N190        C191   1.372   1_554  A
C191        C192   1.380       .  A
C191       C1066   1.483       .  S
C192        C193   1.359   1_556  A
C192        H195   1.083       .  S
C193        C194   1.379       .  A
C193        H196   1.083       .  S
C194       C1037   1.470       .  S
O197        V205   1.908       .  S
O197        C207   1.266       .  A
O198        V205   1.911       .  S
O198        C208   1.267       .  A
O199        V205   1.892       .  S
O199        C209   1.262       .  A
O200        V205   1.892       .  S
O200        C210   1.263       .  A
O201        V206   1.911       .  S
O201        C210   1.268       .  A
O202        V206   1.913       .  S
O202        C209   1.267       .  A
O203        V206   1.896       .  S
O203        C208   1.262       .  A
O204        V206   1.894       .  S
O204        C207   1.264       .  A
V205        V206   2.085       .  T
C207       C1013   1.489       .  S
C208        C223   1.471       .  S
C209        C251   1.469       .  S
C210        C989   1.494       .  S
O211        V219   1.900       .  S
O211        C221   1.264       .  A
O212        V219   1.904       .  S
O212        C222   1.266       .  A
O213        V219   1.904       .  S
O213        C223   1.264       .  A
O214        V219   1.896       .  S
O214        C224   1.264       .  A
O215        V220   1.906       .  S
O215        C224   1.265       .  A
O216        V220   1.903       .  S
O216        C223   1.266       .  A
O217        V220   1.905       .  S
O217        C222   1.264       .  A
O218        V220   1.902       .  S
O218        C221   1.264       .  A
V219        V220   2.088       .  T
C221        C965   1.473       .  S
C222        C237   1.473       .  S
C224       C1133   1.482       .  S
O225        V233   1.910       .  S
O225        C235   1.267       .  A
O226        V233   1.903       .  S
O226        C236   1.265       .  A
O227        V233   1.901       .  S
O227        C237   1.264       .  A
O228        V233   1.895       .  S
O228        C238   1.264       .  A
O229        V234   1.909       .  S
O229        C238   1.266       .  A
O230        V234   1.909       .  S
O230        C237   1.266       .  A
O231        V234   1.899       .  S
O231        C236   1.263       .  A
O232        V234   1.898       .  S
O232        C235   1.265       .  A
V233        V234   2.086       .  T
C235       C1162   1.496       .  S
C236        C250   1.467       .  S
C238       C1085   1.486       .  S
O239        V247   1.910       .  S
O239        C249   1.267       .  A
O240        V247   1.904       .  S
O240        C250   1.265       .  A
O241        V247   1.909       .  S
O241        C251   1.265       .  A
O242        V247   1.907       .  S
O242        C252   1.266       .  A
O243        V248   1.895       .  S
O243        C252   1.264       .  A
O244        V248   1.895       .  S
O244        C251   1.264       .  A
O245        V248   1.898       .  S
O245        C250   1.263       .  A
O246        V248   1.897       .  S
O246        C249   1.265       .  A
V247        V248   2.087       .  T
C249        C941   1.493       .  S
C252       C1042   1.481       .  S
N253        C257   1.371       .  A
N253        C254   1.369       .  A
N253        N260   1.434       .  S
C254        C255   1.380       .  A
C254       C1282   1.473       .  S
C255        C256   1.360       .  A
C255        H258   1.083       .  S
C256        C257   1.379       .  A
C256        H259   1.082       .  S
C257       C1018   1.486       .  S
N260        C264   1.374       .  A
N260        C261   1.377       .  A
C261        C262   1.379       .  A
C261       C1186   1.480       .  S
C262        C263   1.360       .  A
C262        H265   1.083       .  S
C263        C264   1.380       .  A
C263        H266   1.083       .  S
C264        C946   1.490       .  S
O267        V275   1.902       .  S
O267        C277   1.266       .  A
O268        V275   1.891       .  S
O268        C278   1.262       .  A
O269        V275   1.909       .  S
O269        C279   1.266       .  A
O270        V275   1.910       .  S
O270        C280   1.267       .  A
O271        V276   1.915       .  S
O271        C280   1.268       .  A
O272        V276   1.913       .  S
O272        C279   1.267       .  A
O273        V276   1.908       .  S
O273        C278   1.266       .  A
O274        V276   1.912       .  S
O274        C277   1.267       .  A
V275        V276   2.085       .  T
C277       C1114   1.495       .  S
C278        C292   1.465       .  S
C279        C307   1.482       .  S
C280        C917   1.496       .  S
O281        V289   1.906       .  S
O281        C291   1.266       .  A
O282        V289   1.905       .  S
O282        C292   1.264       .  A
O283        V289   1.885       .  S
O283        C293   1.261       .  A
O284        V289   1.885       .  S
O284        C294   1.263       .  A
O285        V290   1.909       .  S
O285        C294   1.265       .  A
O286        V290   1.905       .  S
O286        C293   1.265       .  A
O287        V290   1.894       .  S
O287        C292   1.263       .  A
O288        V290   1.892       .  S
O288        C291   1.263       .  A
V289        V290   2.088       .  T
C291        C893   1.481       .  S
C293        C320   1.458       .  S
C294        C869   1.479       .  S
O295        V303   1.899       .  S
O295        C305   1.265       .  A
O296        V303   1.904       .  S
O296        C306   1.263       .  A
O297        V303   1.914       .  S
O297        C307   1.267       .  A
O298        V303   1.905       .  S
O298        C308   1.268       .  A
O299        V304   1.905       .  S
O299        C308   1.265       .  A
O300        V304   1.909       .  S
O300        C307   1.266       .  A
O301        V304   1.896       .  S
O301        C306   1.265       .  A
O302        V304   1.897       .  S
O302        C305   1.264       .  A
V303        V304   2.086       .  T
C305       C1061   1.481       .  S
C306        C321   1.466       .  S
C308        C845   1.496       .  S
O309        V317   1.906       .  S
O309        C319   1.264       .  A
O310        V317   1.887       .  S
O310        C320   1.262       .  A
O311        V317   1.913       .  S
O311        C321   1.268       .  A
O312        V317   1.913       .  S
O312        C322   1.268       .  A
O313        V318   1.897       .  S
O313        C322   1.263       .  A
O314        V318   1.887       .  S
O314        C321   1.261       .  A
O315        V318   1.903       .  S
O315        C320   1.264       .  A
O316        V318   1.904       .  S
O316        C319   1.267       .  A
V317        V318   2.086       .  T
C319        C797   1.483       .  S
C322        C821   1.484       .  S
N323        C327   1.365       .  A
N323        C324   1.372       .  A
N323        N330   1.426       .  S
C324        C325   1.386       .  A
C324        C994   1.503       .  S
C325        C326   1.361       .  A
C325        H328   1.082       .  S
C326        C327   1.376       .  A
C326        H329   1.083       .  S
C327        C898   1.473       .  S
N330        C334   1.374       .  A
N330        C331   1.370       .  A
C331        C332   1.380       .  A
C331        C826   1.484       .  S
C332        C333   1.361       .  A
C332        H335   1.083       .  S
C333        C334   1.382       .  A
C333        H336   1.082       .  S
C334        C970   1.493       .  S
O337        V345   1.906       .  S
O337        C347   1.267       .  A
O338        V345   1.907       .  S
O338        C348   1.266       .  A
O339        V345   1.891       .  S
O339        C349   1.262       .  A
O340        V345   1.900       .  S
O340        C350   1.264       .  A
O341        V346   1.897       .  S
O341        C350   1.265       .  A
O342        V346   1.895       .  S
O342        C349   1.262       .  A
O343        V346   1.901       .  S
O343        C348   1.264       .  A
O344        V346   1.901       .  S
O344        C347   1.264       .  A
V345        V346   2.088       .  T
C347       C1637   1.486       .  S
C348        C377   1.471       .  S
C349        C363   1.455       .  S
C350        C773   1.482       .  S
O351        V359   1.903       .  S
O351        C361   1.265       .  A
O352        V359   1.903       .  S
O352        C362   1.264       .  A
O353        V359   1.897       .  S
O353        C363   1.263       .  A
O354        V359   1.903       .  S
O354        C364   1.265       .  A
O355        V360   1.890       .  S
O355        C364   1.263       .  A
O356        V360   1.889       .  S
O356        C363   1.261       .  A
O357        V360   1.901       .  S
O357        C362   1.265       .  A
O358        V360   1.901       .  S
O358        C361   1.264       .  A
V359        V360   2.089       .  T
C361       C1589   1.479       .  S
C362        C390   1.468       .  S
C364        C749   1.476       .  S
O365        V373   1.900       .  S
O365        C375   1.265       .  A
O366        V373   1.906       .  S
O366        C376   1.265       .  A
O367        V373   1.905       .  S
O367        C377   1.265       .  A
O368        V373   1.905       .  S
O368        C378   1.266       .  A
O369        V374   1.909       .  S
O369        C378   1.266       .  A
O370        V374   1.903       .  S
O370        C377   1.265       .  A
O371        V374   1.908       .  S
O371        C376   1.266       .  A
O372        V374   1.910       .  S
O372        C375   1.266       .  A
V373        V374   2.087       .  T
C375        C725   1.490       .  S
C376        C391   1.475       .  S
C378       C1354   1.487       .  S
O379        V387   1.899       .  S
O379        C389   1.265       .  A
O380        V387   1.899       .  S
O380        C390   1.263       .  A
O381        V387   1.910       .  S
O381        C391   1.267       .  A
O382        V387   1.909       .  S
O382        C392   1.266       .  A
O383        V388   1.902       .  S
O383        C392   1.265       .  A
O384        V388   1.903       .  S
O384        C391   1.264       .  A
O385        V388   1.905       .  S
O385        C390   1.265       .  A
O386        V388   1.903       .  S
O386        C389   1.266       .  A
V387        V388   2.086       .  T
C389       C1325   1.490       .  S
C392        C701   1.488       .  S
N393        C397   1.370       .  A
N393        C394   1.373       .  A
N393        N400   1.436       .  S
C394        C395   1.379       .  A
C394        C677   1.472       .  S
C395        C396   1.358       .  A
C395        H398   1.083       .  S
C396        C397   1.381       .  A
C396        H399   1.082       .  S
C397        C754   1.482       .  S
N400        C404   1.377       .  A
N400        C401   1.373       .  A
C401        C402   1.377       .  A
C401        C658   1.471       .  S
C402        C403   1.356       .  A
C402        H405   1.083       .  S
C403        C404   1.381       .  A
C403        H406   1.082       .  S
C404        C706   1.490       .  S
N407        C411   1.369       .  A
N407        C408   1.373       .  A
N407        N414   1.425       .  S
C408        C409   1.384       .  A
C408        C629   1.512   1_565  S
C409        C410   1.365       .  A
C409        H412   1.082       .  S
C410        C411   1.380       .  A
C410        H413   1.083       .  S
C411        C922   1.488       .  S
N414        C418   1.374       .  A
N414        C415   1.366       .  A
C415        C416   1.382       .  A
C415        C874   1.483       .  S
C416        C417   1.362       .  A
C416        H419   1.083       .  S
C417        C418   1.383       .  A
C417        H420   1.082       .  S
C418        C605   1.500   1_565  S
N421        C425   1.371       .  A
N421        C422   1.371       .  A
N421        N428   1.433       .  S
C422        C423   1.380       .  A
C422        C778   1.476       .  S
C423        C424   1.357       .  A
C423        H426   1.083       .  S
C424        C425   1.379       .  A
C424        H427   1.083       .  S
C425        C581   1.470       .  S
N428        C432   1.374       .  A
N428        C429   1.375       .  A
C429        C430   1.379       .  A
C429        C557   1.482       .  S
C430        C431   1.358       .  A
C430        H433   1.083       .  S
C431        C432   1.380       .  A
C431        H434   1.083       .  S
C432        C730   1.484       .  S
O435        V443   1.899       .  S
O435        C445   1.264       .  A
O436        V443   1.900       .  S
O436        C446   1.263       .  A
O437        V443   1.907       .  S
O437        C447   1.265       .  A
O438        V443   1.905       .  S
O438        C448   1.267       .  A
O439        V444   1.895       .  S
O439        C448   1.264       .  A
O440        V444   1.890       .  S
O440        C447   1.262       .  A
O441        V444   1.902       .  S
O441        C446   1.265       .  A
O442        V444   1.902       .  S
O442        C445   1.265       .  A
V443        V444   2.087       .  T
C445        C682   1.481       .  S
C446        C475   1.467       .  S
C447        C489   1.463       .  S
C448        C533   1.490       .  S
O449        V457   1.900       .  S
O449        C459   1.265       .  A
O450        V457   1.902       .  S
O450        C460   1.264       .  A
O451        V457   1.905       .  S
O451        C461   1.265       .  A
O452        V457   1.903       .  S
O452        C462   1.266       .  A
O453        V458   1.911       .  S
O453        C462   1.267       .  A
O454        V458   1.909       .  S
O454        C461   1.266       .  A
O455        V458   1.898       .  S
O455        C460   1.263       .  A
O456        V458   1.894       .  S
O456        C459   1.263       .  A
V457        V458   2.086       .  T
C459        C586   1.475       .  S
C460        C488   1.466       .  S
C461        C474   1.476       .  S
C462        C634   1.498       .  S
O463        V471   1.912       .  S
O463        C473   1.267       .  A
O464        V471   1.907       .  S
O464        C474   1.265       .  A
O465        V471   1.904       .  S
O465        C475   1.265       .  A
O466        V471   1.911       .  S
O466        C476   1.266       .  A
O467        V472   1.898       .  S
O467        C476   1.264       .  A
O468        V472   1.897       .  S
O468        C475   1.263       .  A
O469        V472   1.908       .  S
O469        C474   1.266       .  A
O470        V472   1.908       .  S
O470        C473   1.267       .  A
V471        V472   2.087       .  T
C473        C509   1.493       .  S
C476        C562   1.484       .  S
O477        V485   1.899       .  S
O477        C487   1.264       .  A
O478        V485   1.899       .  S
O478        C488   1.264       .  A
O479        V485   1.890       .  S
O479        C489   1.262       .  A
O480        V485   1.892       .  S
O480        C490   1.263       .  A
O481        V486   1.915       .  S
O481        C490   1.268       .  A
O482        V486   1.907       .  S
O482        C489   1.265       .  A
O483        V486   1.901       .  S
O483        C488   1.264       .  A
O484        V486   1.901       .  S
O484        C487   1.265       .  A
V485        V486   2.088       .  T
C487        C653   1.476       .  S
C490        C610   1.486       .  S
N491        C495   1.374       .  A
N491        C492   1.365       .  A
N491        N498   1.422       .  S
C492        C493   1.371       .  A
C492        C538   1.475       .  S
C493        C494   1.360       .  A
C493        H496   1.082       .  S
C494        C495   1.391       .  A
C494        H497   1.081       .  S
C495        C850   1.511       .  S
N498        C502   1.376       .  A
N498        C499   1.373       .  A
C499        C500   1.380       .  A
C499        C514   1.494       .  S
C500        C501   1.361       .  A
C500        H503   1.083       .  S
C501        C502   1.382       .  A
C501        H504   1.083       .  S
C502        C802   1.495       .  S
C505        C506   1.413       .  A
C505        C510   1.405       .  A
C505        C519   1.444       .  S
C506        C507   1.403       .  A
C506        C511   1.495       .  S
C507        C508   1.408       .  A
C507        H526   1.085       .  S
C508        C509   1.417       .  A
C508        C520   1.443       .  S
C509        C510   1.405       .  A
C510        H525   1.085       .  S
C511        C512   1.409       .  A
C511        C516   1.408       .  A
C512        C513   1.415       .  A
C512        H527   1.084       .  S
C513        C514   1.413       .  A
C513        C517   1.442       .  S
C514        C515   1.408       .  A
C515        C516   1.397       .  A
C515        H528   1.085       .  S
C516        C518   1.444       .  S
C517        N521   1.157       .  T
C518        N522   1.157       .  T
C519        N524   1.157       .  T
C520        N523   1.157       .  T
C529        C530   1.412       .  A
C529        C534   1.402       .  A
C529        C543   1.443       .  S
C530        C531   1.407       .  A
C530        C535   1.494       .  S
C531        C532   1.400       .  A
C531        H550   1.085       .  S
C532        C533   1.414       .  A
C532        C544   1.444       .  S
C533        C534   1.409       .  A
C534        H549   1.084       .  S
C535        C536   1.405       .  A
C535        C540   1.416       .  A
C536        C537   1.395       .  A
C536        H551   1.085       .  S
C537        C538   1.410       .  A
C537        C541   1.445       .  S
C538        C539   1.402       .  A
C539        C540   1.406       .  A
C539        H552   1.085       .  S
C540        C542   1.443       .  S
C541        N545   1.157       .  T
C542        N546   1.157       .  T
C543        N548   1.157       .  T
C544        N547   1.157       .  T
C553        C554   1.412       .  A
C553        C558   1.410       .  A
C553        C567   1.442       .  S
C554        C555   1.399       .  A
C554        C559   1.488       .  S
C555        C556   1.395       .  A
C555        H574   1.085       .  S
C556        C557   1.416       .  A
C556        C568   1.446       .  S
C557        C558   1.405       .  A
C558        H573   1.084       .  S
C559        C560   1.403       .  A
C559        C564   1.411       .  A
C560        C561   1.406       .  A
C560        H575   1.084       .  S
C561        C562   1.415       .  A
C561        C565   1.443       .  S
C562        C563   1.404       .  A
C563        C564   1.400       .  A
C563        H576   1.085       .  S
C564        C566   1.444       .  S
C565        N569   1.157       .  T
C566        N570   1.157       .  T
C567        N572   1.157       .  T
C568        N571   1.157       .  T
C577        C578   1.412       .  A
C577        C582   1.405       .  A
C577        C591   1.443       .  S
C578        C579   1.398       .  A
C578        C583   1.479       .  S
C579        C580   1.392       .  A
C579        H598   1.084       .  S
C580        C581   1.414       .  A
C580        C592   1.446       .  S
C581        C582   1.402       .  A
C582        H597   1.084       .  S
C583        C584   1.400       .  A
C583        C588   1.411       .  A
C584        C585   1.400       .  A
C584        H599   1.084       .  S
C585        C586   1.415       .  A
C585        C589   1.445       .  S
C586        C587   1.401       .  A
C587        C588   1.398       .  A
C587        H600   1.085       .  S
C588        C590   1.444       .  S
C589        N593   1.157       .  T
C590        N594   1.157       .  T
C591        N596   1.157       .  T
C592        N595   1.157       .  T
C601        C602   1.414       .  A
C601        C606   1.409       .  A
C601        C615   1.442       .  S
C602        C603   1.399       .  A
C602        C607   1.494       .  S
C603        C604   1.393       .  A
C603        H622   1.086       .  S
C604        C605   1.421       .  A
C604        C616   1.446       .  S
C605        C606   1.406       .  A
C606        H621   1.082   1_545  S
C607        C608   1.404       .  A
C607        C612   1.413       .  A
C608        C609   1.399       .  A
C608        H623   1.085       .  S
C609        C610   1.414       .  A
C609        C613   1.445       .  S
C610        C611   1.406       .  A
C611        C612   1.407       .  A
C611        H624   1.084       .  S
C612        C614   1.441       .  S
C613        N617   1.157       .  T
C614        N618   1.156       .  T
C615        N620   1.157       .  T
C616        N619   1.158       .  T
C625        C626   1.416       .  A
C625        C630   1.410       .  A
C625        C639   1.444       .  S
C626        C627   1.405       .  A
C626        C631   1.509       .  S
C627        C628   1.405       .  A
C627        H646   1.082       .  S
C628        C629   1.418       .  A
C628        C640   1.445   1_545  S
C629        C630   1.404       .  A
C630        H645   1.051       .  S
C631        C632   1.408       .  A
C631        C636   1.418       .  A
C632        C633   1.408       .  A
C632        H647   1.084       .  S
C633        C634   1.417       .  A
C633        C637   1.443       .  S
C634        C635   1.406       .  A
C635        C636   1.402       .  A
C635        H648   1.085       .  S
C636        C638   1.444       .  S
C637        N641   1.157       .  T
C638        N642   1.157       .  T
C639        N644   1.158       .  T
C640        N643   1.157       .  T
C649        C650   1.414       .  A
C649        C654   1.400       .  A
C649        C663   1.444       .  S
C650        C651   1.402       .  A
C650        C655   1.487       .  S
C651        C652   1.402       .  A
C651        H670   1.085       .  S
C652        C653   1.414       .  A
C652        C664   1.444       .  S
C653        C654   1.401       .  A
C654        H669   1.085       .  S
C655        C656   1.402       .  A
C655        C660   1.412       .  A
C656        C657   1.398       .  A
C656        H671   1.085       .  S
C657        C658   1.413       .  A
C657        C661   1.445       .  S
C658        C659   1.404       .  A
C659        C660   1.403       .  A
C659        H672   1.085       .  S
C660        C662   1.443       .  S
C661        N665   1.157       .  T
C662        N666   1.157       .  T
C663        N668   1.157       .  T
C664        N667   1.157       .  T
C673        C674   1.414       .  A
C673        C678   1.402       .  A
C673        C687   1.444       .  S
C674        C675   1.404       .  A
C674        C679   1.490       .  S
C675        C676   1.400       .  A
C675        H694   1.084       .  S
C676        C677   1.413       .  A
C676        C688   1.445       .  S
C677        C678   1.402       .  A
C678        H693   1.085       .  S
C679        C680   1.404       .  A
C679        C684   1.414       .  A
C680        C681   1.400       .  A
C680        H695   1.085       .  S
C681        C682   1.413       .  A
C681        C685   1.444       .  S
C682        C683   1.403       .  A
C683        C684   1.401       .  A
C683        H696   1.085       .  S
C684        C686   1.444       .  S
C685        N689   1.157       .  T
C686        N690   1.157       .  T
C687        N692   1.157       .  T
C688        N691   1.157       .  T
C697        C698   1.410       .  A
C697        C702   1.403       .  A
C697        C711   1.444       .  S
C698        C699   1.402       .  A
C698        C703   1.485       .  S
C699        C700   1.404       .  A
C699        H718   1.084       .  S
C700        C701   1.416       .  A
C700        C712   1.444       .  S
C701        C702   1.406       .  A
C702        H717   1.085       .  S
C703        C704   1.396       .  A
C703        C708   1.411       .  A
C704        C705   1.394       .  A
C704        H719   1.085       .  S
C705        C706   1.420       .  A
C705        C709   1.446       .  S
C706        C707   1.406       .  A
C707        C708   1.410       .  A
C707        H720   1.084       .  S
C708        C710   1.442       .  S
C709        N713   1.157       .  T
C710        N714   1.157       .  T
C711        N716   1.157       .  T
C712        N715   1.157       .  T
C721        C722   1.413       .  A
C721        C726   1.400       .  A
C721        C735   1.445       .  S
C722        C723   1.403       .  A
C722        C727   1.495       .  S
C723        C724   1.407       .  A
C723        H742   1.082       .  S
C724        C725   1.417       .  A
C724        C736   1.443       .  S
C725        C726   1.404       .  A
C726        H741   1.085       .  S
C727        C728   1.400       .  A
C727        C732   1.415       .  A
C728        C729   1.393       .  A
C728        H743   1.084       .  S
C729        C730   1.415   1_655  A
C729        C733   1.446       .  S
C730        C731   1.406   1_455  A
C731        C732   1.412       .  A
C731        H744   1.084   1_655  S
C732        C734   1.442       .  S
C733        N737   1.157       .  T
C734        N738   1.157       .  T
C735        N740   1.157       .  T
C736        N739   1.157       .  T
C745        C746   1.408       .  A
C745        C750   1.396       .  A
C745        C759   1.444       .  S
C746        C747   1.401       .  A
C746        C751   1.475       .  S
C747        C748   1.402       .  A
C747        H766   1.084       .  S
C748        C749   1.414       .  A
C748        C760   1.444       .  S
C749        C750   1.404       .  A
C750        H765   1.085       .  S
C751        C752   1.396       .  A
C751        C756   1.408       .  A
C752        C753   1.391       .  A
C752        H767   1.085       .  S
C753        C754   1.417       .  A
C753        C757   1.445       .  S
C754        C755   1.406       .  A
C755        C756   1.405       .  A
C755        H768   1.084       .  S
C756        C758   1.442       .  S
C757        N761   1.157       .  T
C758        N762   1.157       .  T
C759        N764   1.157       .  T
C760        N763   1.157       .  T
C769        C770   1.410       .  A
C769        C774   1.403       .  A
C769        C783   1.442       .  S
C770        C771   1.403       .  A
C770        C775   1.488       .  S
C771        C772   1.396       .  A
C771        H790   1.085       .  S
C772        C773   1.412       .  A
C772        C784   1.443       .  S
C773        C774   1.407       .  A
C774        H789   1.085       .  S
C775        C776   1.408       .  A
C775        C780   1.412       .  A
C776        C777   1.409       .  A
C776        H791   1.084       .  S
C777        C778   1.409   1_655  A
C777        C781   1.442   1_655  S
C778        C779   1.402   1_455  A
C779        C780   1.390       .  A
C779        H792   1.086       .  S
C780        C782   1.445       .  S
C781        N785   1.157       .  T
C782        N786   1.157       .  T
C783        N788   1.157       .  T
C784        N787   1.157       .  T
C793        C794   1.413       .  A
C793        C798   1.409       .  A
C793        C807   1.443       .  S
C794        C795   1.403       .  A
C794        C799   1.492       .  S
C795        C796   1.397       .  A
C795        H814   1.085       .  S
C796        C797   1.412       .  A
C796        C808   1.444       .  S
C797        C798   1.406       .  A
C798        H813   1.084       .  S
C799        C800   1.408       .  A
C799        C804   1.408       .  A
C800        C801   1.414       .  A
C800        H815   1.084       .  S
C801        C802   1.414       .  A
C801        C805   1.440       .  S
C802        C803   1.407       .  A
C803        C804   1.392       .  A
C803        H816   1.085       .  S
C804        C806   1.446       .  S
C805        N809   1.157       .  T
C806        N810   1.157       .  T
C807        N812   1.157       .  T
C808        N811   1.157       .  T
C817        C818   1.412       .  A
C817        C822   1.402       .  A
C817        C831   1.444       .  S
C818        C819   1.402       .  A
C818        C823   1.488       .  S
C819        C820   1.406       .  A
C819        H838   1.085       .  S
C820        C821   1.416       .  A
C820        C832   1.444       .  S
C821        C822   1.403       .  A
C822        H837   1.085       .  S
C823        C824   1.398       .  A
C823        C828   1.411       .  A
C824        C825   1.397       .  A
C824        H839   1.085       .  S
C825        C826   1.418       .  A
C825        C829   1.446       .  S
C826        C827   1.404       .  A
C827        C828   1.409       .  A
C827        H840   1.084       .  S
C828        C830   1.441       .  S
C829        N833   1.157       .  T
C830        N834   1.157       .  T
C831        N836   1.157       .  T
C832        N835   1.157       .  T
C841        C842   1.413       .  A
C841        C846   1.399       .  A
C841        C855   1.445       .  S
C842        C843   1.402       .  A
C842        C847   1.493       .  S
C843        C844   1.408       .  A
C843        H862   1.084       .  S
C844        C845   1.421       .  A
C844        C856   1.443       .  S
C845        C846   1.405       .  A
C846        H861   1.084       .  S
C847        C848   1.396       .  A
C847        C852   1.411       .  A
C848        C849   1.395       .  A
C848        H863   1.085       .  S
C849        C850   1.423       .  A
C849        C853   1.446       .  S
C850        C851   1.406       .  A
C851        C852   1.413       .  A
C851        H864   1.076       .  S
C852        C854   1.441       .  S
C853        N857   1.157       .  T
C854        N858   1.157       .  T
C855        N860   1.157       .  T
C856        N859   1.157       .  T
C865        C866   1.417       .  A
C865        C870   1.392       .  A
C865        C879   1.443       .  S
C866        C867   1.411       .  A
C866        C871   1.498       .  S
C867        C868   1.407       .  A
C867        H886   1.084       .  S
C868        C869   1.410       .  A
C868        C880   1.443       .  S
C869        C870   1.400       .  A
C870        H885   1.086       .  S
C871        C872   1.401       .  A
C871        C876   1.419       .  A
C872        C873   1.390       .  A
C872        H887   1.084       .  S
C873        C874   1.416       .  A
C873        C877   1.447       .  S
C874        C875   1.402       .  A
C875        C876   1.410       .  A
C875        H888   1.084       .  S
C876        C878   1.442       .  S
C877        N881   1.157       .  T
C878        N882   1.157       .  T
C879        N884   1.156       .  T
C880        N883   1.157       .  T
C889        C890   1.413       .  A
C889        C894   1.403       .  A
C889        C903   1.444       .  S
C890        C891   1.400       .  A
C890        C895   1.486       .  S
C891        C892   1.397       .  A
C891        H910   1.085       .  S
C892        C893   1.416       .  A
C892        C904   1.445       .  S
C893        C894   1.404       .  A
C894        H909   1.085       .  S
C895        C896   1.402       .  A
C895        C900   1.414       .  A
C896        C897   1.398       .  A
C896        H911   1.085       .  S
C897        C898   1.413       .  A
C897        C901   1.445       .  S
C898        C899   1.400       .  A
C899        C900   1.401       .  A
C899        H912   1.085       .  S
C900        C902   1.443       .  S
C901        N905   1.157       .  T
C902        N906   1.157       .  T
C903        N908   1.157       .  T
C904        N907   1.157       .  T
C913        C914   1.416       .  A
C913        C918   1.410       .  A
C913        C927   1.443       .  S
C914        C915   1.407       .  A
C914        C919   1.508       .  S
C915        C916   1.405       .  A
C915        H934   1.084       .  S
C916        C917   1.416       .  A
C916        C928   1.444       .  S
C917        C918   1.406       .  A
C918        H933   1.084       .  S
C919        C920   1.411       .  A
C919        C924   1.415       .  A
C920        C921   1.408       .  A
C920        H935   1.082       .  S
C921        C922   1.408       .  A
C921        C925   1.442       .  S
C922        C923   1.406       .  A
C923        C924   1.404       .  A
C923        H936   1.085       .  S
C924        C926   1.444       .  S
C925        N929   1.157       .  T
C926        N930   1.157       .  T
C927        N932   1.157       .  T
C928        N931   1.157       .  T
C937        C938   1.411       .  A
C937        C942   1.400       .  A
C937        C951   1.445       .  S
C938        C939   1.402       .  A
C938        C943   1.493       .  S
C939        C940   1.406       .  A
C939        H958   1.084       .  S
C940        C941   1.417       .  A
C940        C952   1.443       .  S
C941        C942   1.407       .  A
C942        H957   1.085       .  S
C943        C944   1.407       .  A
C943        C948   1.412       .  A
C944        C945   1.410       .  A
C944        H959   1.084       .  S
C945        C946   1.413       .  A
C945        C949   1.441       .  S
C946        C947   1.405       .  A
C947        C948   1.396       .  A
C947        H960   1.085       .  S
C948        C950   1.445       .  S
C949        N953   1.157       .  T
C950        N954   1.157       .  T
C951        N956   1.157       .  T
C952        N955   1.157       .  T
C961        C962   1.412       .  A
C961        C966   1.399       .  A
C961        C975   1.444       .  S
C962        C963   1.405       .  A
C962        C967   1.484       .  S
C963        C964   1.404       .  A
C963        H982   1.085       .  S
C964        C965   1.410       .  A
C964        C976   1.443       .  S
C965        C966   1.400       .  A
C966        H981   1.085       .  S
C967        C968   1.396       .  A
C967        C972   1.411       .  A
C968        C969   1.392       .  A
C968        H983   1.085       .  S
C969        C970   1.420       .  A
C969        C973   1.447       .  S
C970        C971   1.406       .  A
C971        C972   1.408       .  A
C971        H984   1.082       .  S
C972        C974   1.442       .  S
C973        N977   1.157       .  T
C974        N978   1.157       .  T
C975        N980   1.157       .  T
C976        N979   1.157       .  T
C985        C986   1.410       .  A
C985        C990   1.402       .  A
C985        C999   1.444       .  S
C986        C987   1.406       .  A
C986        C991   1.495       .  S
C987        C988   1.402       .  A
C987       H1006   1.085       .  S
C988        C989   1.416       .  A
C988       C1000   1.444       .  S
C989        C990   1.411       .  A
C990       H1005   1.084       .  S
C991        C992   1.402       .  A
C991        C996   1.414       .  A
C992        C993   1.400       .  A
C992       H1007   1.085       .  S
C993        C994   1.418       .  A
C993        C997   1.445       .  S
C994        C995   1.399       .  A
C995        C996   1.406       .  A
C995       H1008   1.067       .  S
C996        C998   1.443       .  S
C997       N1001   1.157       .  T
C998       N1002   1.157       .  T
C999       N1004   1.157       .  T
C1000      N1003   1.157       .  T
C1009      C1010   1.408       .  A
C1009      C1014   1.399       .  A
C1009      C1023   1.444       .  S
C1010      C1011   1.399       .  A
C1010      C1015   1.483       .  S
C1011      C1012   1.403       .  A
C1011      H1030   1.083       .  S
C1012      C1013   1.417       .  A
C1012      C1024   1.443       .  S
C1013      C1014   1.408       .  A
C1014      H1029   1.085       .  S
C1015      C1016   1.403       .  A
C1015      C1020   1.408       .  A
C1016      C1017   1.407       .  A
C1016      H1031   1.084       .  S
C1017      C1018   1.411       .  A
C1017      C1021   1.439       .  S
C1018      C1019   1.405       .  A
C1019      C1020   1.393       .  A
C1019      H1032   1.085       .  S
C1020      C1022   1.444       .  S
C1021      N1025   1.156       .  T
C1022      N1026   1.157       .  T
C1023      N1028   1.157       .  T
C1024      N1027   1.157       .  T
C1033      C1034   1.414       .  A
C1033      C1038   1.406       .  A
C1033      C1047   1.442       .  S
C1034      C1035   1.402       .  A
C1034      C1039   1.492       .  S
C1035      C1036   1.394       .  A
C1035      H1054   1.081       .  S
C1036      C1037   1.410       .  A
C1036      C1048   1.446       .  S
C1037      C1038   1.404       .  A
C1038      H1053   1.084       .  S
C1039      C1040   1.404       .  A
C1039      C1044   1.414       .  A
C1040      C1041   1.403       .  A
C1040      H1055   1.081       .  S
C1041      C1042   1.413       .  A
C1041      C1045   1.444       .  S
C1042      C1043   1.403       .  A
C1043      C1044   1.399       .  A
C1043      H1056   1.085       .  S
C1044      C1046   1.445       .  S
C1045      N1049   1.157       .  T
C1046      N1050   1.157       .  T
C1047      N1052   1.157       .  T
C1048      N1051   1.157       .  T
C1057      C1058   1.408       .  A
C1057      C1062   1.401       .  A
C1057      C1071   1.441       .  S
C1058      C1059   1.404       .  A
C1058      C1063   1.484       .  S
C1059      C1060   1.399       .  A
C1059      H1078   1.085       .  S
C1060      C1061   1.413       .  A
C1060      C1072   1.444       .  S
C1061      C1062   1.405       .  A
C1062      H1077   1.085       .  S
C1063      C1064   1.405       .  A
C1063      C1068   1.409       .  A
C1064      C1065   1.409       .  A
C1064      H1079   1.084       .  S
C1065      C1066   1.411       .  A
C1065      C1069   1.439       .  S
C1066      C1067   1.404       .  A
C1067      C1068   1.392       .  A
C1067      H1080   1.085       .  S
C1068      C1070   1.445       .  S
C1069      N1073   1.156       .  T
C1070      N1074   1.157       .  T
C1071      N1076   1.157       .  T
C1072      N1075   1.157       .  T
C1081      C1082   1.414       .  A
C1081      C1086   1.399       .  A
C1081      C1095   1.443       .  S
C1082      C1083   1.410       .  A
C1082      C1087   1.500       .  S
C1083      C1084   1.406       .  A
C1083      H1102   1.084       .  S
C1084      C1085   1.411       .  A
C1084      C1096   1.444       .  S
C1085      C1086   1.404       .  A
C1086      H1101   1.085       .  S
C1087      C1088   1.407       .  A
C1087      C1092   1.415       .  A
C1088      C1089   1.404       .  A
C1088      H1103   1.084       .  S
C1089      C1090   1.411       .  A
C1089      C1093   1.442       .  S
C1090      C1091   1.405       .  A
C1091      C1092   1.402       .  A
C1091      H1104   1.085       .  S
C1092      C1094   1.443       .  S
C1093      N1097   1.157       .  T
C1094      N1098   1.157       .  T
C1095      N1100   1.157       .  T
C1096      N1099   1.157       .  T
C1105      C1106   1.414       .  A
C1105      C1110   1.411       .  A
C1105      C1119   1.442       .  S
C1106      C1107   1.401       .  A
C1106      C1111   1.495       .  S
C1107      C1108   1.396       .  A
C1107      H1126   1.085       .  S
C1108      C1109   1.416       .  A
C1108      C1120   1.445       .  S
C1109      C1110   1.407       .  A
C1110      H1125   1.084       .  S
C1111      C1112   1.403       .  A
C1111      C1116   1.412       .  A
C1112      C1113   1.408       .  A
C1112      H1127   1.083       .  S
C1113      C1114   1.418       .  A
C1113      C1117   1.443       .  S
C1114      C1115   1.406       .  A
C1115      C1116   1.402       .  A
C1115      H1128   1.085       .  S
C1116      C1118   1.444       .  S
C1117      N1121   1.157       .  T
C1118      N1122   1.157       .  T
C1119      N1124   1.157       .  T
C1120      N1123   1.157       .  T
C1129      C1130   1.408       .  A
C1129      C1134   1.400       .  A
C1129      C1143   1.444       .  S
C1130      C1131   1.402       .  A
C1130      C1135   1.481       .  S
C1131      C1132   1.402       .  A
C1131      H1150   1.083       .  S
C1132      C1133   1.413       .  A
C1132      C1144   1.443       .  S
C1133      C1134   1.406       .  A
C1134      H1149   1.085       .  S
C1135      C1136   1.404       .  A
C1135      C1140   1.408       .  A
C1136      C1137   1.408       .  A
C1136      H1151   1.084       .  S
C1137      C1138   1.413       .  A
C1137      C1141   1.443       .  S
C1138      C1139   1.404       .  A
C1139      C1140   1.393       .  A
C1139      H1152   1.085       .  S
C1140      C1142   1.445       .  S
C1141      N1145   1.157       .  T
C1142      N1146   1.157       .  T
C1143      N1148   1.157       .  T
C1144      N1147   1.157       .  T
C1153      C1154   1.414       .  A
C1153      C1158   1.412       .  A
C1153      C1167   1.442       .  S
C1154      C1155   1.399       .  A
C1154      C1159   1.492       .  S
C1155      C1156   1.392       .  A
C1155      H1174   1.086       .  S
C1156      C1157   1.418       .  A
C1156      C1168   1.445       .  S
C1157      C1158   1.408       .  A
C1158      H1173   1.084       .  S
C1159      C1160   1.403       .  A
C1159      C1164   1.410       .  A
C1160      C1161   1.399       .  A
C1160      H1175   1.085       .  S
C1161      C1162   1.418       .  A
C1161      C1165   1.445       .  S
C1162      C1163   1.410       .  A
C1163      C1164   1.407       .  A
C1163      H1176   1.084       .  S
C1164      C1166   1.443       .  S
C1165      N1169   1.157       .  T
C1166      N1170   1.157       .  T
C1167      N1172   1.157       .  T
C1168      N1171   1.157       .  T
C1177      C1178   1.413       .  A
C1177      C1182   1.405       .  A
C1177      C1191   1.444       .  S
C1178      C1179   1.403       .  A
C1178      C1183   1.492       .  S
C1179      C1180   1.402       .  A
C1179      H1198   1.084       .  S
C1180      C1181   1.414       .  A
C1180      C1192   1.444       .  S
C1181      C1182   1.405       .  A
C1182      H1197   1.085       .  S
C1183      C1184   1.402       .  A
C1183      C1188   1.413       .  A
C1184      C1185   1.402       .  A
C1184      H1199   1.085       .  S
C1185      C1186   1.414       .  A
C1185      C1189   1.442       .  S
C1186      C1187   1.406       .  A
C1187      C1188   1.404       .  A
C1187      H1200   1.085       .  S
C1188      C1190   1.443       .  S
C1189      N1193   1.157       .  T
C1190      N1194   1.157       .  T
C1191      N1196   1.157       .  T
C1192      N1195   1.157       .  T
C1201      C1202   1.410       .  A
C1201      C1206   1.405       .  A
C1201      C1215   1.443       .  S
C1202      C1203   1.403       .  A
C1202      C1207   1.493       .  S
C1203      C1204   1.397       .  A
C1203      H1222   1.085       .  S
C1204      C1205   1.417       .  A
C1204      C1216   1.444       .  S
C1205      C1206   1.409       .  A
C1206      H1221   1.084       .  S
C1207      C1208   1.407       .  A
C1207      C1212   1.415       .  A
C1208      C1209   1.409       .  A
C1208      H1223   1.084       .  S
C1209      C1210   1.411       .  A
C1209      C1213   1.441       .  S
C1210      C1211   1.401       .  A
C1211      C1212   1.392       .  A
C1211      H1224   1.085       .  S
C1212      C1214   1.446       .  S
C1213      N1217   1.157       .  T
C1214      N1218   1.157       .  T
C1215      N1220   1.157       .  T
C1216      N1219   1.157       .  T
C1225      C1226   1.418       .  A
C1225      C1230   1.402       .  A
C1225      C1239   1.439       .  S
C1226      C1227   1.412       .  A
C1226      C1231   1.511       .  S
C1227      C1228   1.407       .  A
C1227      H1246   1.084       .  S
C1228      C1229   1.411       .  A
C1228      C1240   1.443       .  S
C1229      C1230   1.404       .  A
C1230      H1245   1.085       .  S
C1231      C1232   1.408       .  A
C1231      C1236   1.420       .  A
C1232      C1233   1.402       .  A
C1232      H1247   1.084       .  S
C1233      C1234   1.413       .  A
C1233      C1237   1.446       .  S
C1234      C1235   1.404       .  A
C1235      C1236   1.408       .  A
C1235      H1248   1.085       .  S
C1236      C1238   1.443       .  S
C1237      N1241   1.157       .  T
C1238      N1242   1.157       .  T
C1239      N1244   1.156       .  T
C1240      N1243   1.157       .  T
C1249      C1250   1.407       .  A
C1249      C1254   1.393       .  A
C1249      C1263   1.447       .  S
C1250      C1251   1.407       .  A
C1250      C1255   1.501       .  S
C1251      C1252   1.413       .  A
C1251      H1270   1.084       .  S
C1252      C1253   1.421       .  A
C1252      C1264   1.440       .  S
C1253      C1254   1.413       .  A
C1254      H1269   1.079       .  S
C1255      C1256   1.410       .  A
C1255      C1260   1.418       .  A
C1256      C1257   1.411       .  A
C1256      H1271   1.084       .  S
C1257      C1258   1.410       .  A
C1257      C1261   1.442       .  S
C1258      C1259   1.393       .  A
C1259      C1260   1.390       .  A
C1259      H1272   1.086       .  S
C1260      C1262   1.438       .  S
C1261      N1265   1.157       .  T
C1262      N1266   1.154       .  T
C1263      N1268   1.157       .  T
C1264      N1267   1.157       .  T
C1273      C1274   1.414       .  A
C1273      C1278   1.404       .  A
C1273      C1287   1.444       .  S
C1274      C1275   1.400       .  A
C1274      C1279   1.486       .  S
C1275      C1276   1.393       .  A
C1275      H1294   1.082       .  S
C1276      C1277   1.411       .  A
C1276      C1288   1.445       .  S
C1277      C1278   1.405       .  A
C1278      H1293   1.085       .  S
C1279      C1280   1.403       .  A
C1279      C1284   1.412       .  A
C1280      C1281   1.396       .  A
C1280      H1295   1.085       .  S
C1281      C1282   1.409       .  A
C1281      C1285   1.443       .  S
C1282      C1283   1.406       .  A
C1283      C1284   1.403       .  A
C1283      H1296   1.085       .  S
C1284      C1286   1.443       .  S
C1285      N1289   1.157       .  T
C1286      N1290   1.157       .  T
C1287      N1292   1.157       .  T
C1288      N1291   1.157       .  T
C1297      C1298   1.425       .  A
C1297      C1302   1.400       .  A
C1297      C1311   1.445       .  S
C1298      C1299   1.410       .  A
C1298      C1303   1.512       .  S
C1299      C1300   1.398       .  A
C1299      H1318   1.077       .  S
C1300      C1301   1.409       .  A
C1300      C1312   1.446       .  S
C1301      C1302   1.396       .  A
C1302      H1317   1.084       .  S
C1303      C1304   1.411       .  A
C1303      C1308   1.423       .  A
C1304      C1305   1.400       .  A
C1304      H1319   1.083       .  S
C1305      C1306   1.410       .  A
C1305      C1309   1.444       .  S
C1306      C1307   1.401       .  A
C1307      C1308   1.398       .  A
C1307      H1320   1.085       .  S
C1308      C1310   1.440       .  S
C1309      N1313   1.157       .  T
C1310      N1314   1.158       .  T
C1311      N1316   1.157       .  T
C1312      N1315   1.157   1_655  T
C1321      C1322   1.415       .  A
C1321      C1326   1.402       .  A
C1321      C1335   1.443       .  S
C1322      C1323   1.407       .  A
C1322      C1327   1.498       .  S
C1323      C1324   1.401       .  A
C1323      H1342   1.085       .  S
C1324      C1325   1.414       .  A
C1324      C1336   1.444       .  S
C1325      C1326   1.407       .  A
C1326      H1341   1.085       .  S
C1327      C1328   1.407       .  A
C1327      C1332   1.417       .  A
C1328      C1329   1.398       .  A
C1328      H1343   1.085       .  S
C1329      C1330   1.410       .  A
C1329      C1333   1.445       .  S
C1330      C1331   1.402       .  A
C1331      C1332   1.404       .  A
C1331      H1344   1.085       .  S
C1332      C1334   1.443       .  S
C1333      N1337   1.157       .  T
C1334      N1338   1.157       .  T
C1335      N1340   1.158       .  T
C1336      N1339   1.157       .  T
C1345      C1346   1.407       .  A
C1345      C1350   1.395       .  A
C1345      C1359   1.445       .  S
C1346      C1347   1.408       .  A
C1346      C1351   1.492       .  S
C1347      C1348   1.414       .  A
C1347      H1366   1.084       .  S
C1348      C1349   1.412       .  A
C1348      C1360   1.443       .  S
C1349      C1350   1.408       .  A
C1350      H1365   1.085       .  S
C1351      C1352   1.403       .  A
C1351      C1356   1.413       .  A
C1352      C1353   1.407       .  A
C1352      H1367   1.085       .  S
C1353      C1354   1.415       .  A
C1353      C1357   1.444       .  S
C1354      C1355   1.403       .  A
C1355      C1356   1.402       .  A
C1355      H1368   1.085       .  S
C1356      C1358   1.444       .  S
C1357      N1361   1.157       .  T
C1358      N1362   1.157       .  T
C1359      N1364   1.157       .  T
C1360      N1363   1.157       .  T
C1369      C1370   1.415       .  A
C1369      C1374   1.399       .  A
C1369      C1383   1.444       .  S
C1370      C1371   1.407       .  A
C1370      C1375   1.499       .  S
C1371      C1372   1.415       .  A
C1371      H1390   1.084       .  S
C1372      C1373   1.418       .  A
C1372      C1384   1.442       .  S
C1373      C1374   1.403       .  A
C1374      H1389   1.085       .  S
C1375      C1376   1.398       .  A
C1375      C1380   1.415       .  A
C1376      C1377   1.398       .  A
C1376      H1391   1.085       .  S
C1377      C1378   1.422       .  A
C1377      C1381   1.445       .  S
C1378      C1379   1.405       .  A
C1379      C1380   1.413       .  A
C1379      H1392   1.078       .  S
C1380      C1382   1.440       .  S
C1381      N1385   1.157       .  T
C1382      N1386   1.157       .  T
C1383      N1388   1.157       .  T
C1384      N1387   1.157       .  T
C1393      C1394   1.415       .  A
C1393      C1398   1.407       .  A
C1393      C1407   1.443       .  S
C1394      C1395   1.404       .  A
C1394      C1399   1.492       .  S
C1395      C1396   1.398       .  A
C1395      H1414   1.083       .  S
C1396      C1397   1.411       .  A
C1396      C1408   1.445       .  S
C1397      C1398   1.404       .  A
C1398      H1413   1.084       .  S
C1399      C1400   1.403       .  A
C1399      C1404   1.417       .  A
C1400      C1401   1.397       .  A
C1400      H1415   1.085       .  S
C1401      C1402   1.412       .  A
C1401      C1405   1.445       .  S
C1402      C1403   1.400       .  A
C1403      C1404   1.404       .  A
C1403      H1416   1.083       .  S
C1404      C1406   1.441       .  S
C1405      N1409   1.157       .  T
C1406      N1410   1.157       .  T
C1407      N1412   1.157       .  T
C1408      N1411   1.157       .  T
C1417      C1418   1.418       .  A
C1417      C1422   1.397       .  A
C1417      C1431   1.439       .  S
C1418      C1419   1.411       .  A
C1418      C1423   1.503       .  S
C1419      C1420   1.402       .  A
C1419      H1438   1.084       .  S
C1420      C1421   1.409       .  A
C1420      C1432   1.443       .  S
C1421      C1422   1.400       .  A
C1422      H1437   1.086       .  S
C1423      C1424   1.411       .  A
C1423      C1428   1.417       .  A
C1424      C1425   1.401       .  A
C1424      H1439   1.084       .  S
C1425      C1426   1.407       .  A
C1425      C1429   1.443       .  S
C1426      C1427   1.404       .  A
C1427      C1428   1.401       .  A
C1427      H1440   1.085       .  S
C1428      C1430   1.443       .  S
C1429      N1433   1.157       .  T
C1430      N1434   1.157       .  T
C1431      N1436   1.155       .  T
C1432      N1435   1.157       .  T
C1441      C1442   1.418       .  A
C1441      C1446   1.390       .  A
C1441      C1455   1.438       .  S
C1442      C1443   1.411       .  A
C1442      C1447   1.500       .  S
C1443      C1444   1.409       .  A
C1443      H1462   1.084       .  S
C1444      C1445   1.409       .  A
C1444      C1456   1.442       .  S
C1445      C1446   1.393       .  A
C1446      H1461   1.086       .  S
C1447      C1448   1.401       .  A
C1447      C1452   1.419       .  A
C1448      C1449   1.391       .  A
C1448      H1463   1.084       .  S
C1449      C1450   1.416       .  A
C1449      C1453   1.446       .  S
C1450      C1451   1.404       .  A
C1451      C1452   1.411       .  A
C1451      H1464   1.083       .  S
C1452      C1454   1.443       .  S
C1453      N1457   1.157       .  T
C1454      N1458   1.157       .  T
C1455      N1460   1.155       .  T
C1456      N1459   1.157       .  T
C1465      C1466   1.411       .  A
C1465      C1470   1.406       .  A
C1465      C1479   1.442       .  S
C1466      C1467   1.398       .  A
C1466      C1471   1.481       .  S
C1467      C1468   1.391       .  A
C1467      H1486   1.085       .  S
C1468      C1469   1.413       .  A
C1468      C1480   1.446       .  S
C1469      C1470   1.405       .  A
C1470      H1485   1.085       .  S
C1471      C1472   1.401       .  A
C1471      C1476   1.412       .  A
C1472      C1473   1.403       .  A
C1472      H1487   1.085       .  S
C1473      C1474   1.415       .  A
C1473      C1477   1.444       .  S
C1474      C1475   1.400       .  A
C1475      C1476   1.399       .  A
C1475      H1488   1.085       .  S
C1476      C1478   1.445       .  S
C1477      N1481   1.157       .  T
C1478      N1482   1.157       .  T
C1479      N1484   1.157       .  T
C1480      N1483   1.157       .  T
C1489      C1490   1.412       .  A
C1489      C1494   1.406       .  A
C1489      C1503   1.443       .  S
C1490      C1491   1.398       .  A
C1490      C1495   1.480       .  S
C1491      C1492   1.391       .  A
C1491      H1510   1.085       .  S
C1492      C1493   1.415       .  A
C1492      C1504   1.446       .  S
C1493      C1494   1.403       .  A
C1494      H1509   1.084       .  S
C1495      C1496   1.399       .  A
C1495      C1500   1.410       .  A
C1496      C1497   1.400       .  A
C1496      H1511   1.085       .  S
C1497      C1498   1.420       .  A
C1497      C1501   1.444       .  S
C1498      C1499   1.405       .  A
C1499      C1500   1.398       .  A
C1499      H1512   1.085       .  S
C1500      C1502   1.444       .  S
C1501      N1505   1.157       .  T
C1502      N1506   1.157       .  T
C1503      N1508   1.157       .  T
C1504      N1507   1.157       .  T
C1513      C1514   1.414       .  A
C1513      C1518   1.401       .  A
C1513      C1527   1.444       .  S
C1514      C1515   1.401       .  A
C1514      C1519   1.485       .  S
C1515      C1516   1.398       .  A
C1515      H1534   1.084       .  S
C1516      C1517   1.413       .  A
C1516      C1528   1.444       .  S
C1517      C1518   1.401       .  A
C1518      H1533   1.085       .  S
C1519      C1520   1.402       .  A
C1519      C1524   1.413       .  A
C1520      C1521   1.398       .  A
C1520      H1535   1.085       .  S
C1521      C1522   1.414       .  A
C1521      C1525   1.445       .  S
C1522      C1523   1.400       .  A
C1523      C1524   1.401       .  A
C1523      H1536   1.085       .  S
C1524      C1526   1.443       .  S
C1525      N1529   1.157       .  T
C1526      N1530   1.157       .  T
C1527      N1532   1.157       .  T
C1528      N1531   1.157       .  T
C1537      C1538   1.407       .  A
C1537      C1542   1.395       .  A
C1537      C1551   1.444       .  S
C1538      C1539   1.401       .  A
C1538      C1543   1.477       .  S
C1539      C1540   1.403       .  A
C1539      H1558   1.085       .  S
C1540      C1541   1.418       .  A
C1540      C1552   1.444       .  S
C1541      C1542   1.405       .  A
C1542      H1557   1.085       .  S
C1543      C1544   1.398       .  A
C1543      C1548   1.408       .  A
C1544      C1545   1.392       .  A
C1544      H1559   1.085       .  S
C1545      C1546   1.417       .  A
C1545      C1549   1.446       .  S
C1546      C1547   1.404       .  A
C1547      C1548   1.404       .  A
C1547      H1560   1.084       .  S
C1548      C1550   1.442       .  S
C1549      N1553   1.157       .  T
C1550      N1554   1.157       .  T
C1551      N1556   1.157       .  T
C1552      N1555   1.157       .  T
C1561      C1562   1.410       .  A
C1561      C1566   1.396       .  A
C1561      C1575   1.445       .  S
C1562      C1563   1.405       .  A
C1562      C1567   1.489       .  S
C1563      C1564   1.409       .  A
C1563      H1582   1.084       .  S
C1564      C1565   1.413       .  A
C1564      C1576   1.442       .  S
C1565      C1566   1.406       .  A
C1566      H1581   1.085       .  S
C1567      C1568   1.400       .  A
C1567      C1572   1.410       .  A
C1568      C1569   1.404       .  A
C1568      H1583   1.084       .  S
C1569      C1570   1.418       .  A
C1569      C1573   1.443       .  S
C1570      C1571   1.407       .  A
C1571      C1572   1.401       .  A
C1571      H1584   1.084       .  S
C1572      C1574   1.444       .  S
C1573      N1577   1.157       .  T
C1574      N1578   1.157       .  T
C1575      N1580   1.157       .  T
C1576      N1579   1.157       .  T
C1585      C1586   1.415       .  A
C1585      C1590   1.402       .  A
C1585      C1599   1.442       .  S
C1586      C1587   1.408       .  A
C1586      C1591   1.496       .  S
C1587      C1588   1.401       .  A
C1587      H1606   1.085       .  S
C1588      C1589   1.409       .  A
C1588      C1600   1.444       .  S
C1589      C1590   1.403       .  A
C1590      H1605   1.085       .  S
C1591      C1592   1.405       .  A
C1591      C1596   1.415       .  A
C1592      C1593   1.398       .  A
C1592      H1607   1.081       .  S
C1593      C1594   1.410       .  A
C1593      C1597   1.445       .  S
C1594      C1595   1.405       .  A
C1595      C1596   1.406       .  A
C1595      H1608   1.083       .  S
C1596      C1598   1.443       .  S
C1597      N1601   1.157       .  T
C1598      N1602   1.157       .  T
C1599      N1604   1.157       .  T
C1600      N1603   1.157       .  T
C1609      C1610   1.408       .  A
C1609      C1614   1.394       .  A
C1609      C1623   1.444       .  S
C1610      C1611   1.402       .  A
C1610      C1615   1.484       .  S
C1611      C1612   1.408       .  A
C1611      H1630   1.084       .  S
C1612      C1613   1.416       .  A
C1612      C1624   1.440       .  S
C1613      C1614   1.406       .  A
C1614      H1629   1.085       .  S
C1615      C1616   1.401       .  A
C1615      C1620   1.408       .  A
C1616      C1617   1.405       .  A
C1616      H1631   1.083       .  S
C1617      C1618   1.417       .  A
C1617      C1621   1.443       .  S
C1618      C1619   1.407       .  A
C1619      C1620   1.398       .  A
C1619      H1632   1.085       .  S
C1620      C1622   1.444       .  S
C1621      N1625   1.157       .  T
C1622      N1626   1.157       .  T
C1623      N1628   1.157       .  T
C1624      N1627   1.156       .  T
C1633      C1634   1.417       .  A
C1633      C1638   1.404       .  A
C1633      C1647   1.443       .  S
C1634      C1635   1.408       .  A
C1634      C1639   1.502       .  S
C1635      C1636   1.401       .  A
C1635      H1654   1.085       .  S
C1636      C1637   1.411       .  A
C1636      C1648   1.442       .  S
C1637      C1638   1.405       .  A
C1638      H1653   1.085       .  S
C1639      C1640   1.407       .  A
C1639      C1644   1.417       .  A
C1640      C1641   1.398       .  A
C1640      H1655   1.080       .  S
C1641      C1642   1.409       .  A
C1641      C1645   1.446       .  S
C1642      C1643   1.404       .  A
C1643      C1644   1.406       .  A
C1643      H1656   1.085       .  S
C1644      C1646   1.443       .  S
C1645      N1649   1.157       .  T
C1646      N1650   1.157       .  T
C1647      N1652   1.157       .  T
C1648      N1651   1.157       .  T
