geometry optimzed in LAMMPS
_audit_creation_date              2020-12-01 
_audit_creation_method            'lammps2cif' 
_symmetry_space_group_name_H-M    'P1' 
_symmetry_Int_Tables_number       1 
_symmetry_cell_setting            triclinic 
loop_ 
_symmetry_equiv_pos_as_xyz 
  x,y,z 
_cell_length_a                    31.48708535 
_cell_length_b                    31.521292232760914 
_cell_length_c                    24.30112087232161 
_cell_angle_alpha                 90.87670933260891 
_cell_angle_beta                  89.34492108848694 
_cell_angle_gamma                 120.0051140019779 
loop_ 
_atom_site_label 
_atom_site_type_symbol 
_atom_site_fract_x 
_atom_site_fract_y 
_atom_site_fract_z 
_atom_site_charge 
C1          C  0.66518847  0.33041574  0.13746322     0.30700
C2          C  0.66528225  0.33096328  0.02510999     0.30700
C3          C  0.69319258  0.30753216  0.10879600    -0.05500
C4          C  0.61426556  0.30268050  0.11011871    -0.06300
C5          C  0.68807722  0.38102224  0.11101226    -0.06100
C6          C  0.69355340  0.30859509  0.05148341    -0.05500
C7          C  0.61459544  0.30247445  0.05269212    -0.06300
C8          C  0.68716627  0.38148574  0.05381854    -0.06100
C9          C  0.71984382  0.28707599  0.03284169    -0.31500
N10         N  0.73474153  0.27196267  0.07690218     0.15000
C11         C  0.71855393  0.28400672  0.12355227    -0.31500
H12         H  0.72497339  0.27633285  0.16492211     0.16900
C13         C  0.56650141  0.27781142  0.03571897    -0.30500
N14         N  0.53706372  0.26402001  0.08086912     0.13700
C15         C  0.56561189  0.27905473  0.12661407    -0.30500
C16         C  0.70802485  0.42995940  0.03870215    -0.30800
N17         N  0.72333683  0.45836989  0.08485298     0.14200
H18         H  0.71262760  0.44392890  0.99744740     0.16800
C19         C  0.71148690  0.42900729  0.12929311    -0.30800
H20         H  0.71914407  0.44168251  0.17166078     0.16800
H21         H  0.55191966  0.27311018  0.16854127     0.16800
H22         H  0.72681611  0.28188702  0.99026881     0.16900
H23         H  0.55358014  0.27155525  0.99375133     0.16800
C24         C  0.67019926  0.33699841  0.52467679     0.30700
C25         C  0.66534871  0.33603171  0.63698615     0.30700
C26         C  0.68939519  0.30646959  0.55335015    -0.05500
C27         C  0.69852178  0.38702461  0.55357318    -0.06300
C28         C  0.61850347  0.31606124  0.54954090    -0.06100
C29         C  0.68800988  0.30715424  0.61067349    -0.05500
C30         C  0.69585407  0.38717278  0.61079116    -0.06300
C31         C  0.61569410  0.31498000  0.60683946    -0.06100
C32         C  0.70920915  0.28072145  0.62900459    -0.31500
N33         N  0.72144160  0.26244004  0.58451261     0.15000
C34         C  0.70847313  0.27677242  0.53835213    -0.31500
H35         H  0.71296440  0.26607070  0.49746391     0.16900
C36         C  0.72148896  0.43600466  0.62756072    -0.30500
N37         N  0.74032050  0.46452205  0.58215889     0.13700
C38         C  0.72648030  0.43481192  0.53698535    -0.30500
C39         C  0.56649691  0.29447547  0.62052278    -0.30800
N40         N  0.54003775  0.28406011  0.57340818     0.14200
H41         H  0.55096448  0.28826859  0.66156618     0.16800
C42         C  0.57143286  0.29725992  0.52990454    -0.30800
H43         H  0.56057560  0.29255685  0.48716903     0.16800
H44         H  0.73523528  0.44721719  0.49489362     0.16800
H45         H  0.71508499  0.27497822  0.67154708     0.16900
H46         H  0.72630477  0.44977362  0.66941634     0.16800
C47         C  0.33659921  0.66263946  0.97740459     0.30700
C48         C  0.33232649  0.66183253  0.86504341     0.30700
C49         C  0.30684437  0.68428159  0.95315226    -0.05500
C50         C  0.38614391  0.69171257  0.94733965    -0.06300
C51         C  0.31372323  0.61202626  0.94947686    -0.06100
C52         C  0.30453658  0.68404525  0.89592457    -0.05500
C53         C  0.38418409  0.69031951  0.89002809    -0.06300
C54         C  0.31070657  0.61107148  0.89221695    -0.06100
C55         C  0.27590000  0.70444064  0.88293929    -0.31500
N56         N  0.26183497  0.71739573  0.93022823     0.15000
C57         C  0.28006120  0.70493388  0.97342357    -0.31500
H58         H  0.27509161  0.71155180  0.01619553     0.16900
C59         C  0.43205495  0.71742899  0.87098103    -0.30500
N60         N  0.46222182  0.73659315  0.91518469     0.13700
C61         C  0.43451406  0.72205864  0.96157312    -0.30500
C62         C  0.28634634  0.56207454  0.87637377    -0.30800
N63         N  0.27612627  0.53412596  0.92220826     0.14200
H64         H  0.27698788  0.54780854  0.83477936     0.16800
C65         C  0.29282373  0.56436828  0.96688609    -0.30800
H66         H  0.28900661  0.55245712  0.00910168     0.16800
H67         H  0.44917823  0.73366597  0.00250011     0.16800
H68         H  0.26476008  0.70875512  0.84248065     0.16900
H69         H  0.44388887  0.72357133  0.82841130     0.16800
C70         C  0.33422456  0.67128081  0.36479753     0.30700
C71         C  0.33086563  0.67051946  0.47697438     0.30700
C72         C  0.31599021  0.70380387  0.39194371    -0.05500
C73         C  0.30106205  0.62109867  0.39097957    -0.06300
C74         C  0.38371163  0.68894358  0.39378567    -0.06100
C75         C  0.31483576  0.70404858  0.44938950    -0.05500
C76         C  0.29853705  0.62094891  0.44808212    -0.06300
C77         C  0.38147667  0.68766954  0.45101596    -0.06100
C78         C  0.29582739  0.73356467  0.46535045    -0.31500
N79         N  0.28474199  0.75015081  0.41942647     0.15000
C80         C  0.29666816  0.73207616  0.37447402    -0.31500
H81         H  0.29064231  0.73822592  0.33228290     0.16900
C82         C  0.26903228  0.57297645  0.46379434    -0.30500
N83         N  0.25493256  0.54399717  0.41799666     0.13700
C84         C  0.27455360  0.57287714  0.37322699    -0.30500
C85         C  0.42856183  0.70658125  0.47011471    -0.30800
N86         N  0.45964110  0.72027944  0.42629576     0.14200
H87         H  0.43963035  0.71219573  0.51282629     0.16800
C88         C  0.43281300  0.71010832  0.37947237    -0.30800
H89         H  0.44815838  0.71854453  0.33836572     0.16800
H90         H  0.27057106  0.55970961  0.33112384     0.16800
H91         H  0.28818501  0.74048679  0.50702555     0.16900
H92         H  0.26027793  0.55971114  0.50550876     0.16800
O93         O  0.06105499  0.97397771  0.04497721    -0.87600
C94         C  0.07593522  0.06385795  0.91731077     0.88400
Mg95       Mg  0.00574241  0.89769624  0.04703069     1.58100
O96         O  0.02074741  0.08199020  0.03496208    -0.87400
O97         O  0.08134903  0.04005111  0.09459726    -0.74700
C98         C  0.79885543  0.89114054  0.97098532     0.93500
O99         O  0.04035953  0.94640874  0.91678251    -0.74500
O100        O  0.82012069  0.86590975  0.96569964    -0.82000
Mg101      Mg  0.10480874  0.00030939  0.97070988     1.58000
C102        C  0.89636117  0.09448343  0.02315680     0.93400
O103        O  0.17642598  0.05513576  0.01564197    -0.80300
H104        H  0.02329549  0.09750425  0.11529633    -0.05600
C105        C  0.92703500  0.99395273  0.91591540     0.88300
O106        O  0.95444011  0.91482364  0.09859444    -0.74800
O107        O  0.08396688  0.05559961  0.96451090    -0.87500
O108        O  0.93925295  0.11397524  0.00183297    -0.80400
C109        C  0.09761771  0.19476420  0.96382331     0.93500
C110        C  0.19861682  0.09922403  0.03390132     0.93300
Mg111      Mg  0.89270343  0.98925127  0.03554871     1.58000
O112        O  0.82100178  0.93502559  0.98982696    -0.80300
O113        O  0.95727354  0.04251930  0.08947949    -0.74500
O114        O  0.11808315  0.17317540  0.98624513    -0.80400
O115        O  0.12626580  0.94093096  0.97406778    -0.82100
O116        O  0.87985824  0.81788853  0.02193772    -0.80400
C117        C  0.00139640  0.07558280  0.08092101     0.87800
O118        O  0.91367456  0.93417984  0.04128701    -0.87500
O119        O  0.93634414  0.01562877  0.96089277    -0.87600
O120        O  0.91638967  0.94948944  0.91134061    -0.74700
Mg121      Mg  0.09673071  0.10263460  0.03589547     1.58000
O122        O  0.05161628  0.17282098  0.95453633    -0.82100
H123        H  0.06797134  0.97547566  0.12673095    -0.05800
O124        O  0.97671435  0.90734723  0.97114639    -0.87300
H125        H  0.97443141  0.89114488  0.89099890    -0.05600
H126        H  0.90117574  0.92959970  0.12238580    -0.05800
C127        C  0.99619538  0.91339599  0.92530021     0.87800
C128        C  0.07059568  0.99557867  0.08996070     0.88300
C129        C  0.92162079  0.92580959  0.08848694     0.88400
H130        H  0.92980878  0.01402768  0.87903722    -0.05800
O131        O  0.04310521  0.07482722  0.90725252    -0.74800
Mg132      Mg  0.90077594  0.88710510  0.97040855     1.58000
H133        H  0.09632032  0.05997975  0.88336010    -0.05800
C134        C  0.10115237  0.89516019  0.98367984     0.93400
O135        O  0.94625795  0.81706657  0.05194420    -0.82000
C136        C  0.90012855  0.79598136  0.04411640     0.93400
O137        O  0.17716584  0.12413653  0.04007648    -0.82000
Mg138      Mg  0.99182327  0.09193729  0.95897885     1.58200
O139        O  0.05784427  0.87537505  0.00385902    -0.80300
O140        O  0.87151134  0.04890118  0.03378545    -0.82000
O141        O  0.97759614  0.06616909  0.45708222    -0.87600
C142        C  0.07520253  0.08425781  0.57512644     0.88400
Mg143      Mg  0.90137901  0.01011630  0.46085017     1.58100
O144        O  0.08485574  0.02752036  0.45376956    -0.87400
O145        O  0.03978127  0.08809589  0.40076013    -0.74700
C146        C  0.89806554  0.80236736  0.52803505     0.93500
O147        O  0.95992450  0.04721281  0.58579079    -0.74500
O148        O  0.87333884  0.82389564  0.53681868    -0.82000
Mg149      Mg  0.00870371  0.11192750  0.52946071     1.58000
C150        C  0.10041523  0.90468878  0.46056606     0.93400
O151        O  0.05944333  0.18350611  0.48119361    -0.80300
H152        H  0.09241852  0.02780713  0.37198496    -0.05600
C153        C  0.00525648  0.93192721  0.57724710     0.88300
O154        O  0.91479811  0.95835920  0.40536410    -0.74800
O155        O  0.06493872  0.09268636  0.52909317    -0.87500
O156        O  0.11991784  0.94817879  0.48024740    -0.80400
C157        C  0.20188525  0.10566205  0.51937380     0.93500
C158        C  0.10219118  0.20588970  0.45931433     0.93300
Mg159      Mg  0.99243581  0.89692441  0.45815626     1.58000
O160        O  0.94092229  0.82447695  0.50613850    -0.80300
O161        O  0.04131884  0.96202393  0.40232097    -0.74500
O162        O  0.17963658  0.12579952  0.49782109    -0.80400
O163        O  0.94829597  0.13195224  0.53378373    -0.82100
O164        O  0.82100046  0.88456388  0.49156601    -0.80400
C165        C  0.07422663  0.00675846  0.40821609     0.87800
O166        O  0.93566535  0.91606559  0.45840809    -0.87500
O167        O  0.02326090  0.94265673  0.53059588    -0.87600
O168        O  0.96098599  0.92009039  0.58679567    -0.74700
Mg169      Mg  0.10628914  0.10407484  0.45359127     1.58000
O170        O  0.18027081  0.05980269  0.52876186    -0.82100
H171        H  0.97231717  0.07336104  0.37626038    -0.05800
O172        O  0.91640667  0.98176957  0.53437550    -0.87300
H173        H  0.90878974  0.98144977  0.61616243    -0.05600
H174        H  0.92622106  0.90392615  0.37731298    -0.05800
C175        C  0.92701673  0.00248822  0.57993559     0.87800
C176        C  0.99548955  0.07626993  0.41030085     0.88300
C177        C  0.92495174  0.92457709  0.41263959     0.88400
H178        H  0.02829524  0.93425444  0.61118316    -0.05800
O179        O  0.08506878  0.05038175  0.58294050    -0.74800
Mg180      Mg  0.89466719  0.90502902  0.53426856     1.58000
H181        H  0.07352984  0.10490556  0.61020400    -0.05800
C182        C  0.90196836  0.10560070  0.52841007     0.93400
O183        O  0.82041849  0.95067154  0.46074944    -0.82000
C184        C  0.79866439  0.90497645  0.47083790     0.93400
O185        O  0.12729870  0.18483851  0.45044424    -0.82000
Mg186      Mg  0.09941013  0.99938531  0.52762616     1.58200
O187        O  0.88173905  0.06202091  0.50881690    -0.80300
O188        O  0.05411724  0.87784791  0.45436977    -0.82000
C189        C  0.13809487  0.33076551  0.45120856     0.30500
C190        C  0.13861557  0.37398094  0.46731996    -0.35900
C191        C  0.17498500  0.41739440  0.44324002     0.16500
C192        C  0.20815267  0.41835484  0.40489069     0.22300
C193        C  0.20785606  0.37503364  0.38900411    -0.34000
C194        C  0.17194190  0.33158256  0.41401922     0.16400
O195        O  0.10849597  0.28654685  0.47057124    -0.26000
C196        C  0.12371181  0.25840855  0.44609600     0.06200
C197        C  0.16325545  0.28453367  0.41050823    -0.30900
O198        O  0.23991459  0.46339629  0.38897748    -0.22700
C199        C  0.22703867  0.49139409  0.41811257    -0.02700
C200        C  0.18711489  0.46484424  0.45267172    -0.17100
H201        H  0.11319131  0.37392100  0.49768521     0.20900
H202        H  0.23453250  0.37535916  0.36028634     0.19200
H203        H  0.18316578  0.27097488  0.38637570     0.19200
H204        H  0.17033751  0.47869402  0.48142884     0.15000
C205        C  0.67197725  0.82109883  0.47108662     0.30500
C206        C  0.62770080  0.78311928  0.49207422    -0.35900
C207        C  0.58526117  0.77151759  0.46229890     0.16500
C208        C  0.58618526  0.79503114  0.41444499     0.22300
C209        C  0.63054680  0.83351906  0.39373121    -0.34000
C210        C  0.67301904  0.84579767  0.42422366     0.16400
O211        O  0.71582453  0.83806773  0.49289880    -0.26000
C212        C  0.74552444  0.87471318  0.46019349     0.06200
C213        C  0.72086096  0.88152110  0.41696615    -0.30900
O214        O  0.54182018  0.77876365  0.39400660    -0.22700
C215        C  0.51226929  0.74488999  0.42976062    -0.02700
C216        C  0.53726672  0.73886822  0.47302531    -0.17100
H217        H  0.62634522  0.76438955  0.52956446     0.20900
H218        H  0.63174639  0.85307247  0.35699657     0.19200
H219        H  0.73605914  0.90855256  0.38476423     0.19200
H220        H  0.52215818  0.71466901  0.50782625     0.15000
C221        C  0.23972659  0.83009480  0.43819891     0.30500
C222        C  0.23756529  0.87036384  0.46055868    -0.35900
C223        C  0.19497964  0.87241076  0.44908567     0.16500
C224        C  0.15677857  0.83704675  0.41826539     0.22300
C225        C  0.15960145  0.79757521  0.39445545    -0.34000
C226        C  0.20244839  0.79578406  0.40538930     0.16400
O227        O  0.27432641  0.81891255  0.44713259    -0.26000
C228        C  0.25945432  0.77749851  0.41860054     0.06200
C229        C  0.21524786  0.76153207  0.39148943    -0.30900
O230        O  0.11860203  0.84388368  0.41702582    -0.22700
C231        C  0.13285223  0.88461198  0.44681324    -0.02700
C232        C  0.18024480  0.90414055  0.46723681    -0.17100
H233        H  0.26630523  0.89732599  0.48659940     0.20900
H234        H  0.12981651  0.76936613  0.37059270     0.19200
H235        H  0.19452069  0.72828494  0.36750377     0.19200
H236        H  0.19993689  0.93571584  0.49401596     0.15000
C237        C  0.19894327  0.40768193  0.91181252     0.30500
C238        C  0.15718988  0.36352851  0.89568470    -0.35900
C239        C  0.15104920  0.32052233  0.91999286     0.16500
C240        C  0.18412859  0.32080158  0.95694803     0.22300
C241        C  0.22555599  0.36491033  0.97349308    -0.34000
C242        C  0.23123604  0.40793005  0.94996639     0.16400
O243        O  0.21121534  0.45232603  0.89550632    -0.26000
C244        C  0.25155327  0.48144127  0.92420103     0.06200
C245        C  0.26550215  0.45589135  0.95896151    -0.30900
O246        O  0.17068424  0.27662604  0.97559366    -0.22700
C247        C  0.12806222  0.24748665  0.95078385    -0.02700
C248        C  0.11402949  0.27290489  0.91576758    -0.17100
H249        H  0.13082188  0.36283998  0.86701404     0.20900
H250        H  0.25106040  0.36573649  0.00352899     0.19200
H251        H  0.29618834  0.47064622  0.98701560     0.19200
H252        H  0.08083776  0.25852752  0.89173569     0.15000
C253        C  0.67395108  0.85395080  0.95810351     0.30500
C254        C  0.63021014  0.85336157  0.97151307    -0.35900
C255        C  0.58788896  0.81786491  0.94440986     0.16500
C256        C  0.58836523  0.78533139  0.90604467     0.22300
C257        C  0.63221986  0.78562758  0.89298807    -0.34000
C258        C  0.67458560  0.82081288  0.92079647     0.16400
O259        O  0.71744602  0.88338984  0.97967851    -0.26000
C260        C  0.74649441  0.86870522  0.95654333     0.06200
C261        C  0.72176568  0.82967182  0.91971719    -0.30900
O262        O  0.54389778  0.75374378  0.88774646    -0.22700
C263        C  0.51480495  0.76631411  0.91503997    -0.02700
C264        C  0.54017131  0.80572797  0.95097867    -0.17100
H265        H  0.62906390  0.87820618  0.00194761     0.20900
H266        H  0.63304279  0.75949709  0.86421754     0.19200
H267        H  0.73642254  0.81059908  0.89584409     0.19200
H268        H  0.52523750  0.82158406  0.97959566     0.15000
C269        C  0.17186285  0.84234822  0.94143798     0.30500
C270        C  0.21076972  0.84043671  0.91489332    -0.35900
C271        C  0.21448619  0.79860867  0.92469892     0.16500
C272        C  0.18257337  0.76151131  0.95903222     0.22300
C273        C  0.14295096  0.76287624  0.98447379    -0.34000
C274        C  0.13889267  0.80444405  0.97408633     0.16400
O275        O  0.16289431  0.87903112  0.94010518    -0.26000
C276        C  0.12322480  0.86422139  0.97172781     0.06200
C277        C  0.10649018  0.81789400  0.99364424    -0.30900
O278        O  0.19488470  0.72748728  0.96542267    -0.22700
C279        C  0.23453624  0.74259916  0.93381368    -0.02700
C280        C  0.24832929  0.78638151  0.90718876    -0.17100
H281        H  0.23688434  0.86993374  0.88929185     0.20900
H282        H  0.11769434  0.73407589  0.01139590     0.19200
H283        H  0.07592454  0.79784061  0.02139931     0.19200
H284        H  0.27976478  0.80698441  0.88073278     0.15000
C285        C  0.33459360  0.64568501  0.71986852     0.30500
C286        C  0.33865505  0.62439967  0.67033513    -0.35900
C287        C  0.33540993  0.64629635  0.62179516     0.16500
C288        C  0.32777150  0.68575777  0.62178945     0.22300
C289        C  0.32528321  0.70792131  0.67121016    -0.34000
C290        C  0.32942348  0.68658989  0.71961914     0.16400
O291        O  0.33586228  0.63102531  0.77025010    -0.26000
C292        C  0.33145885  0.66308821  0.80275095     0.06200
C293        C  0.32932972  0.69947721  0.77304981    -0.30900
O294        O  0.32433830  0.69938083  0.57168124    -0.22700
C295        C  0.33046654  0.66859920  0.53900709    -0.02700
C296        C  0.33830575  0.63535800  0.56806789    -0.17100
H297        H  0.34388525  0.59297574  0.66963818     0.20900
H298        H  0.32033353  0.73952639  0.67191793     0.19200
H299        H  0.32922090  0.73183759  0.78805091     0.19200
H300        H  0.34487500  0.60700535  0.55173235     0.15000
C301        C  0.35723047  0.67087953  0.22186017     0.30500
C302        C  0.38453386  0.67426986  0.17450961    -0.35900
C303        C  0.36006663  0.66644053  0.12432753     0.16500
C304        C  0.31220543  0.65621599  0.12080677     0.22300
C305        C  0.28442252  0.65150079  0.16824153    -0.34000
C306        C  0.30885135  0.65922432  0.21850168     0.16400
O307        O  0.37307399  0.67768232  0.27296453    -0.26000
C308        C  0.33428770  0.67002159  0.30287324     0.06200
C309        C  0.29316498  0.65799014  0.27112660    -0.30900
O310        O  0.29760325  0.65278894  0.06949534    -0.22700
C311        C  0.33676033  0.66133828  0.03957744    -0.02700
C312        C  0.37608225  0.66828622  0.07185337    -0.17100
H313        H  0.42243670  0.68314557  0.17660027     0.20900
H314        H  0.24670755  0.64316220  0.16608892     0.19200
H315        H  0.25699890  0.64947652  0.28503637     0.19200
H316        H  0.41117120  0.67301961  0.05931623     0.15000
C317        C  0.76539024  0.18240517  0.56089386     0.30500
C318        C  0.76662419  0.14240082  0.53637286    -0.35900
C319        C  0.80932835  0.13992672  0.54498909     0.16500
C320        C  0.84858887  0.17478502  0.57496645     0.22300
C321        C  0.84691128  0.21426229  0.60062427    -0.34000
C322        C  0.80379120  0.21635833  0.59273658     0.16400
O323        O  0.73049164  0.19356503  0.55497028    -0.26000
C324        C  0.74604585  0.23444791  0.58467439     0.06200
C325        C  0.79137782  0.25042850  0.60923329    -0.30900
O326        O  0.88628508  0.16718245  0.57403636    -0.22700
C327        C  0.87061961  0.12651068  0.54368769    -0.02700
C328        C  0.82285405  0.10779377  0.52497406    -0.17100
H329        H  0.73691791  0.11578379  0.51109853     0.20900
H330        H  0.87754189  0.24205743  0.62391690     0.19200
H331        H  0.81308675  0.28365035  0.63288204     0.19200
H332        H  0.80199491  0.07632298  0.49841309     0.15000
C333        C  0.85987000  0.67665967  0.53950091     0.30500
C334        C  0.85763979  0.63231311  0.52461414    -0.35900
C335        C  0.82192203  0.59012029  0.55156874     0.16500
C336        C  0.79090542  0.59128563  0.59142200     0.22300
C337        C  0.79298465  0.63573446  0.60615133    -0.34000
C338        C  0.82817904  0.67791673  0.57830551     0.16400
O339        O  0.88922987  0.72008317  0.51777185    -0.26000
C340        C  0.87596872  0.74979123  0.54237528     0.06200
C341        C  0.83795916  0.72540042  0.58032553    -0.30900
O342        O  0.75901322  0.54698735  0.60968108    -0.22700
C343        C  0.76961865  0.51721251  0.58059876    -0.02700
C344        C  0.80827517  0.54204232  0.54379839    -0.17100
H345        H  0.88127172  0.63060502  0.49305783     0.20900
H346        H  0.76801316  0.63713592  0.63609372     0.19200
H347        H  0.81983315  0.74041300  0.60528916     0.19200
H348        H  0.82308303  0.52664468  0.51442830     0.15000
C349        C  0.32795046  0.19259318  0.52843016     0.30500
C350        C  0.37265304  0.23321203  0.51202984    -0.35900
C351        C  0.41484189  0.24047500  0.53963760     0.16500
C352        C  0.41310301  0.21059274  0.58161683     0.22300
C353        C  0.36840316  0.16986811  0.59784717    -0.34000
C354        C  0.32638854  0.16188699  0.56924603     0.16400
O355        O  0.28442137  0.17768386  0.50641162    -0.26000
C356        C  0.25457830  0.13641658  0.53286405     0.06200
C357        C  0.27879354  0.12477743  0.57230772    -0.30900
O358        O  0.45713927  0.22317680  0.60060160    -0.21100
C359        C  0.48748786  0.26116305  0.56977873    -0.02700
C360        C  0.46329715  0.27350613  0.53109504    -0.17100
H361        H  0.37459531  0.25668150  0.47889780     0.20900
H362        H  0.36670249  0.14524203  0.62945005     0.19200
H363        H  0.26357779  0.09325792  0.59892063     0.19200
H364        H  0.47922702  0.30194614  0.50046919     0.15000
C365        C  0.80855913  0.22293629  0.04026882     0.30500
C366        C  0.84071789  0.21537852  0.00647630    -0.35900
C367        C  0.85178998  0.17977331  0.02390673     0.16500
C368        C  0.83178883  0.15256493  0.07078702     0.22300
C369        C  0.80037648  0.16088657  0.10535111    -0.34000
C370        C  0.78997797  0.19726458  0.08842595     0.16400
O371        O  0.79185565  0.25300816  0.03035314    -0.26000
C372        C  0.76282779  0.24734881  0.07318811     0.06200
C373        C  0.76038806  0.21332502  0.11096526    -0.30900
O374        O  0.84481089  0.11899364  0.07721005    -0.22700
C375        C  0.87435224  0.12557720  0.03445480    -0.02700
C376        C  0.88027506  0.16315092  0.00022479    -0.17100
H377        H  0.85549491  0.23536075  0.96874749     0.20900
H378        H  0.78457559  0.13998119  0.14231569     0.19200
H379        H  0.73859495  0.20090986  0.14816748     0.19200
H380        H  0.90103257  0.17511586  0.96227098     0.15000
C381        C  0.84898375  0.67322219  0.08506901     0.30500
C382        C  0.84881429  0.63177619  0.10610972    -0.35900
C383        C  0.80599003  0.58647140  0.09683711     0.16500
C384        C  0.76642697  0.58227082  0.06808982     0.22300
C385        C  0.76619153  0.62370458  0.04827945    -0.34000
C386        C  0.80864456  0.66890622  0.05812782     0.16400
O387        O  0.88625804  0.71871619  0.08536776    -0.26000
C388        C  0.86925907  0.74386114  0.05879868     0.06200
C389        C  0.82102305  0.71470800  0.04145016    -0.30900
O390        O  0.73168727  0.53632084  0.06050017    -0.22700
C391        C  0.74871309  0.51082561  0.08580656    -0.02700
C392        C  0.79463589  0.53984861  0.10939185    -0.17100
H393        H  0.88029952  0.63448864  0.12686952     0.20900
H394        H  0.73556158  0.62077458  0.02539693     0.19200
H395        H  0.79920221  0.72529382  0.01735558     0.19200
H396        H  0.81702802  0.52811576  0.13043028     0.15000
C397        C  0.32136779  0.17209330  0.07579952     0.30500
C398        C  0.36156844  0.20961103  0.10453290    -0.35900
C399        C  0.40793199  0.21573155  0.09108980     0.16500
C400        C  0.41413938  0.18766384  0.05107304     0.22300
C401        C  0.37407086  0.14993109  0.02310944    -0.34000
C402        C  0.32788837  0.14303648  0.03752589     0.16400
O403        O  0.27486703  0.16045749  0.08046701    -0.26000
C404        C  0.25147897  0.12280474  0.04555673     0.06200
C405        C  0.28266456  0.11034536  0.01801186    -0.30900
O406        O  0.46051597  0.20084871  0.04281008    -0.22700
C407        C  0.48449325  0.23710380  0.07884346    -0.02700
C408        C  0.45386650  0.24807642  0.11030745    -0.17100
H409        H  0.35706085  0.23251244  0.13493380     0.20900
H410        H  0.37863773  0.12760639  0.99198668     0.19200
H411        H  0.27348114  0.08241954  0.98659737     0.19200
H412        H  0.46411670  0.27667042  0.14109388     0.15000
C413        C  0.68551525  0.35265306  0.78094473     0.30500
C414        C  0.71120349  0.37616297  0.82903295    -0.35900
C415        C  0.68961725  0.35274388  0.87859499     0.16500
C416        C  0.64540735  0.30955137  0.88102090     0.22300
C417        C  0.62049992  0.28502152  0.83271726    -0.34000
C418        C  0.64246595  0.30823614  0.78295217     0.16400
O419        O  0.69855501  0.36877655  0.73032070    -0.26000
C420        C  0.66347257  0.33430053  0.69911106     0.06200
C421        C  0.62831102  0.29506756  0.72970512    -0.30900
O422        O  0.63074006  0.29593748  0.93214642    -0.22700
C423        C  0.66619875  0.33083576  0.96284148    -0.02700
C424        C  0.70442592  0.36617756  0.93141644    -0.17100
H425        H  0.74532929  0.41068949  0.82793651     0.20900
H426        H  0.58612919  0.25072732  0.83386006     0.19200
H427        H  0.59701319  0.26160440  0.71492836     0.19200
H428        H  0.73812535  0.39763046  0.94532292     0.15000
C429        C  0.65709386  0.34893511  0.38165934     0.30500
C430        C  0.63560792  0.35511122  0.33434667    -0.35900
C431        C  0.65243700  0.34669566  0.28382541     0.16500
C432        C  0.68800571  0.33339603  0.28020881     0.22300
C433        C  0.71094017  0.32939981  0.32731179    -0.34000
C434        C  0.69392459  0.33751856  0.37765773     0.16400
O435        O  0.64435377  0.35085087  0.43317543    -0.26000
C436        C  0.67311800  0.34001787  0.46254918     0.06200
C437        C  0.70603625  0.33341214  0.42988863    -0.30900
O438        O  0.69635358  0.32466899  0.22919992    -0.22700
C439        C  0.66593148  0.33266668  0.19944036    -0.02700
C440        C  0.63826274  0.34725133  0.23125657    -0.17100
H441        H  0.60668638  0.36412967  0.33678065     0.20900
H442        H  0.73878136  0.31900398  0.32498070     0.19200
H443        H  0.73523161  0.32718017  0.44197402     0.19200
H444        H  0.61140491  0.35665694  0.21746206     0.15000
loop_ 
_geom_bond_atom_site_label_1 
_geom_bond_atom_site_label_2 
_geom_bond_distance 
_geom_bond_site_symmetry_2 
_ccdc_geom_bond_type 
C1            C3   1.546       .  S
C1            C5   1.532       .  S
C1            C4   1.543       .  S
C1          C439   1.507       .  S
C2            C6   1.535       .  S
C2            C8   1.542       .  S
C2            C7   1.537       .  S
C2          C423   1.513   1_554  S
C3           C11   1.387       .  A
C3            C6   1.393       .  A
C4           C15   1.384       .  A
C4            C7   1.395       .  A
C5           C19   1.379       .  A
C5            C8   1.391       .  A
C6            C9   1.376       .  A
C7           C13   1.376       .  A
C8           C16   1.382       .  A
C9           N10   1.358       .  A
C9           H22   1.082   1_554  S
N10          C11   1.362       .  A
N10         C372   1.440       .  S
C11          H12   1.082       .  S
C13          N14   1.357       .  A
C13          H23   1.081   1_554  S
N14          C15   1.360       .  A
N14         C407   1.435       .  S
C15          H21   1.084       .  S
C16          N17   1.357       .  A
C16          H18   1.080   1_554  S
N17          C19   1.356       .  A
N17         C391   1.432       .  S
C19          H20   1.084       .  S
C24          C26   1.546       .  S
C24          C28   1.538       .  S
C24          C27   1.533       .  S
C24         C436   1.513       .  S
C25          C29   1.539       .  S
C25          C31   1.548       .  S
C25          C30   1.548       .  S
C25         C420   1.511       .  S
C26          C34   1.385       .  A
C26          C29   1.393       .  A
C27          C38   1.375       .  A
C27          C30   1.392       .  A
C28          C42   1.380       .  A
C28          C31   1.394       .  A
C29          C32   1.383       .  A
C30          C36   1.390       .  A
C31          C39   1.386       .  A
C32          N33   1.358       .  A
C32          H45   1.086       .  S
N33          C34   1.356       .  A
N33         C324   1.436       .  S
C34          H35   1.075       .  S
C36          N37   1.364       .  A
C36          H46   1.082       .  S
N37          C38   1.358       .  A
N37         C343   1.442       .  S
C38          H44   1.083       .  S
C39          N40   1.360       .  A
C39          H41   1.082       .  S
N40          C42   1.359       .  A
N40         C359   1.440       .  S
C42          H43   1.082       .  S
C47          C49   1.534       .  S
C47          C51   1.534       .  S
C47          C50   1.540       .  S
C47         C311   1.512   1_556  S
C48          C52   1.549       .  S
C48          C54   1.547       .  S
C48          C53   1.543       .  S
C48         C292   1.516       .  S
C49          C57   1.381       .  A
C49          C52   1.393       .  A
C50          C61   1.378       .  A
C50          C53   1.394       .  A
C51          C65   1.376       .  A
C51          C54   1.395       .  A
C52          C55   1.385       .  A
C53          C59   1.387       .  A
C54          C62   1.388       .  A
C55          N56   1.356       .  A
C55          H68   1.081       .  S
N56          C57   1.355       .  A
N56         C279   1.434       .  S
C57          H58   1.082   1_556  S
C59          N60   1.360       .  A
C59          H69   1.082       .  S
N60          C61   1.355       .  A
N60         C263   1.438       .  S
C61          H67   1.080   1_556  S
C62          N63   1.363       .  A
C62          H64   1.082       .  S
N63          C65   1.358       .  A
N63         C244   1.441       .  S
C65          H66   1.082   1_556  S
C70          C72   1.541       .  S
C70          C74   1.543       .  S
C70          C73   1.537       .  S
C70         C308   1.505       .  S
C71          C75   1.544       .  S
C71          C77   1.535       .  S
C71          C76   1.537       .  S
C71         C295   1.509       .  S
C72          C80   1.380       .  A
C72          C75   1.396       .  A
C73          C84   1.383       .  A
C73          C76   1.389       .  A
C74          C88   1.385       .  A
C74          C77   1.392       .  A
C75          C78   1.384       .  A
C76          C82   1.378       .  A
C77          C85   1.376       .  A
C78          N79   1.360       .  A
C78          H91   1.082       .  S
N79          C80   1.358       .  A
N79         C228   1.437       .  S
C80          H81   1.083       .  S
C82          N83   1.358       .  A
C82          H92   1.082       .  S
N83          C84   1.359       .  A
N83         C199   1.437       .  S
C84          H90   1.083       .  S
C85          N86   1.359       .  A
C85          H87   1.082       .  S
N86          C88   1.361       .  A
N86         C215   1.439       .  S
C88          H89   1.082       .  S
O93         Mg95   2.152       .  S
O93        Mg101   2.166   1_564  S
O93         C128   1.237       .  S
C94         H133   1.082       .  S
C94         O107   1.237       .  S
C94         O131   1.270       .  A
Mg95        O124   2.159   1_454  S
Mg95        O139   2.319       .  S
Mg95        O135   2.286   1_455  S
Mg95        O106   2.297   1_455  S
O96        Mg138   2.163   1_454  S
O96        Mg121   2.143       .  S
O96         C117   1.236       .  S
O97         C128   1.270   1_545  A
O97        Mg121   2.297       .  S
C98         O100   1.275       .  A
C98         O112   1.278       .  A
C98         C260   1.477       .  S
O99         C127   1.270   1_455  A
O99        Mg101   2.295   1_565  S
O100       Mg132   2.284       .  S
Mg101       O107   2.155       .  S
Mg101       O115   2.288   1_545  S
Mg101       O103   2.316   1_556  S
C102        O140   1.275       .  A
C102        O108   1.278       .  A
C102        C375   1.477       .  S
O103        C110   1.278       .  A
H104        C117   1.082       .  S
C105        H130   1.082   1_565  S
C105        O119   1.238   1_565  S
C105        O120   1.271       .  A
O106        C129   1.271       .  A
O107       Mg121   2.170   1_556  S
O108       Mg138   2.323   1_554  S
C109        O122   1.276       .  A
C109        O114   1.278       .  A
C109        C247   1.482       .  S
C110        O137   1.273       .  A
C110        C404   1.473       .  S
Mg111       O118   2.151       .  S
Mg111       O119   2.172   1_564  S
Mg111       O112   2.322   1_554  S
Mg111       O113   2.291   1_565  S
Mg111       O140   2.289   1_565  S
O113        C117   1.269   1_655  A
O114       Mg121   2.328   1_556  S
O115        C134   1.275       .  A
O116        C136   1.279       .  A
O116       Mg132   2.322   1_554  S
O118       Mg132   2.161   1_554  S
O118        C129   1.237       .  S
O119       Mg138   2.154       .  S
O120       Mg132   2.296       .  S
Mg121       O137   2.274       .  S
O122       Mg138   2.293   1_455  S
H123        C128   1.082       .  S
O124       Mg132   2.145       .  S
O124        C127   1.236       .  S
H125        C127   1.082       .  S
H126        C129   1.081       .  S
O131       Mg138   2.298   1_455  S
C134        O139   1.278   1_556  A
C134        C276   1.478       .  S
O135        C136   1.275       .  A
C136        C388   1.478       .  S
O141       Mg143   2.156       .  S
O141       Mg149   2.164   1_655  S
O141        C176   1.236       .  S
C142        H181   1.081       .  S
C142        O155   1.237       .  S
C142        O179   1.270       .  A
Mg143       O172   2.169   1_545  S
Mg143       O187   2.314       .  S
Mg143       O183   2.287   1_545  S
Mg143       O154   2.295   1_545  S
O144       Mg186   2.166   1_545  S
O144       Mg169   2.156       .  S
O144        C165   1.238       .  S
O145        C176   1.270   1_455  A
O145       Mg169   2.297       .  S
C146        O148   1.278       .  A
C146        O160   1.282       .  A
C146        C340   1.487       .  S
O147        C175   1.272       .  A
O147       Mg149   2.302   1_655  S
O148       Mg180   2.298       .  S
Mg149       O155   2.139       .  S
Mg149       O163   2.285   1_455  S
Mg149       O151   2.335       .  S
C150        O188   1.277       .  A
C150        O156   1.277       .  A
C150        C231   1.479       .  S
O151        C158   1.280       .  A
H152        C165   1.082       .  S
C153        H178   1.082       .  S
C153        O167   1.235       .  S
C153        O168   1.269   1_455  A
O154        C177   1.271       .  A
O155       Mg169   2.165       .  S
O156       Mg186   2.306       .  S
C157        O170   1.276       .  A
C157        O162   1.277       .  A
C157        C356   1.481       .  S
C158        O185   1.276       .  A
C158        C196   1.481       .  S
Mg159       O166   2.154       .  S
Mg159       O167   2.164   1_655  S
Mg159       O160   2.354       .  S
Mg159       O161   2.302   1_655  S
Mg159       O188   2.303   1_655  S
O161        C165   1.272   1_565  A
O162       Mg169   2.326       .  S
O163        C182   1.274       .  A
O164        C184   1.278       .  A
O164       Mg180   2.326       .  S
O166       Mg180   2.168       .  S
O166        C177   1.237       .  S
O167       Mg186   2.160       .  S
O168       Mg180   2.295       .  S
Mg169       O185   2.290       .  S
O170       Mg186   2.294   1_545  S
H171        C176   1.081       .  S
O172       Mg180   2.160       .  S
O172        C175   1.238   1_565  S
H173        C175   1.082   1_565  S
H174        C177   1.082       .  S
O179       Mg186   2.289   1_545  S
C182        O187   1.277       .  A
C182        C327   1.477       .  S
O183        C184   1.274       .  A
C184        C212   1.477       .  S
C189        C194   1.380       .  A
C189        C190   1.404       .  A
C189        O195   1.320       .  A
C190        C191   1.403       .  A
C190        H201   1.082       .  S
C191        C200   1.362       .  A
C191        C192   1.381       .  A
C192        C193   1.409       .  A
C192        O198   1.324       .  A
C193        C194   1.409       .  A
C193        H202   1.082       .  S
C194        C197   1.368       .  A
O195        C196   1.331       .  A
C196        C197   1.396       .  A
C197        H203   1.082       .  S
O198        C199   1.333       .  A
C199        C200   1.390       .  A
C200        H204   1.082       .  S
C205        C210   1.380       .  A
C205        C206   1.404       .  A
C205        O211   1.320       .  A
C206        C207   1.403       .  A
C206        H217   1.082       .  S
C207        C216   1.362       .  A
C207        C208   1.381       .  A
C208        C209   1.409       .  A
C208        O214   1.324       .  A
C209        C210   1.408       .  A
C209        H218   1.082       .  S
C210        C213   1.368       .  A
O211        C212   1.331       .  A
C212        C213   1.395       .  A
C213        H219   1.082       .  S
O214        C215   1.333       .  A
C215        C216   1.391       .  A
C216        H220   1.082       .  S
C221        C226   1.381       .  A
C221        C222   1.406       .  A
C221        O227   1.323       .  A
C222        C223   1.406       .  A
C222        H233   1.081       .  S
C223        C232   1.362       .  A
C223        C224   1.380       .  A
C224        C225   1.406       .  A
C224        O230   1.324       .  A
C225        C226   1.407       .  A
C225        H234   1.081       .  S
C226        C229   1.365       .  A
O227        C228   1.331       .  A
C228        C229   1.391       .  A
C229        H235   1.082       .  S
O230        C231   1.333       .  A
C231        C232   1.393       .  A
C232        H236   1.082       .  S
C237        C242   1.381       .  A
C237        C238   1.409       .  A
C237        O243   1.325       .  A
C238        C239   1.408       .  A
C238        H249   1.082       .  S
C239        C248   1.368       .  A
C239        C240   1.380       .  A
C240        C241   1.406       .  A
C240        O246   1.322       .  A
C241        C242   1.406       .  A
C241        H250   1.082   1_556  S
C242        C245   1.364       .  A
O243        C244   1.333       .  A
C244        C245   1.392       .  A
C245        H251   1.082       .  S
O246        C247   1.333       .  A
C247        C248   1.395       .  A
C248        H252   1.082       .  S
C253        C258   1.380       .  A
C253        C254   1.403       .  A
C253        O259   1.320       .  A
C254        C255   1.403       .  A
C254        H265   1.082   1_556  S
C255        C264   1.360       .  A
C255        C256   1.381       .  A
C256        C257   1.409       .  A
C256        O262   1.325       .  A
C257        C258   1.409       .  A
C257        H266   1.082       .  S
C258        C261   1.367       .  A
O259        C260   1.331       .  A
C260        C261   1.395       .  A
C261        H267   1.082       .  S
O262        C263   1.333       .  A
C263        C264   1.391       .  A
C264        H268   1.082       .  S
C269        C274   1.380       .  A
C269        C270   1.405       .  A
C269        O275   1.321       .  A
C270        C271   1.405       .  A
C270        H281   1.081       .  S
C271        C280   1.364       .  A
C271        C272   1.382       .  A
C272        C273   1.406       .  A
C272        O278   1.322       .  A
C273        C274   1.405       .  A
C273        H282   1.081   1_556  S
C274        C277   1.365       .  A
O275        C276   1.332       .  A
C276        C277   1.393       .  A
C277        H283   1.082   1_556  S
O278        C279   1.330       .  A
C279        C280   1.390       .  A
C280        H284   1.082       .  S
C285        C290   1.378       .  A
C285        C286   1.405       .  A
C285        O291   1.323       .  A
C286        C287   1.406       .  A
C286        H297   1.082       .  S
C287        C296   1.359       .  A
C287        C288   1.380       .  A
C288        C289   1.401       .  A
C288        O294   1.321       .  A
C289        C290   1.403       .  A
C289        H298   1.082       .  S
C290        C293   1.355       .  A
O291        C292   1.333       .  A
C292        C293   1.394       .  A
C293        H299   1.080       .  S
O294        C295   1.330       .  A
C295        C296   1.394       .  A
C296        H300   1.082       .  S
C301        C306   1.380       .  A
C301        C302   1.401       .  A
C301        O307   1.318       .  A
C302        C303   1.401       .  A
C302        H313   1.083       .  S
C303        C312   1.357       .  A
C303        C304   1.378       .  A
C304        C305   1.403       .  A
C304        O310   1.318       .  A
C305        C306   1.403       .  A
C305        H314   1.082       .  S
C306        C309   1.360       .  A
O307        C308   1.330       .  A
C308        C309   1.392       .  A
C309        H315   1.082       .  S
O310        C311   1.332       .  A
C311        C312   1.394       .  A
C312        H316   1.079       .  S
C317        C322   1.381       .  A
C317        C318   1.404       .  A
C317        O323   1.321       .  A
C318        C319   1.403       .  A
C318        H329   1.081       .  S
C319        C328   1.362       .  A
C319        C320   1.380       .  A
C320        C321   1.408       .  A
C320        O326   1.323       .  A
C321        C322   1.407       .  A
C321        H330   1.082       .  S
C322        C325   1.367       .  A
O323        C324   1.330       .  A
C324        C325   1.392       .  A
C325        H331   1.081       .  S
O326        C327   1.333       .  A
C327        C328   1.392       .  A
C328        H332   1.082       .  S
C333        C338   1.380       .  A
C333        C334   1.406       .  A
C333        O339   1.324       .  A
C334        C335   1.406       .  A
C334        H345   1.082       .  S
C335        C344   1.363       .  A
C335        C336   1.381       .  A
C336        C337   1.410       .  A
C336        O342   1.327       .  A
C337        C338   1.411       .  A
C337        H346   1.082       .  S
C338        C341   1.369       .  A
O339        C340   1.333       .  A
C340        C341   1.396       .  A
C341        H347   1.082       .  S
O342        C343   1.334       .  A
C343        C344   1.392       .  A
C344        H348   1.082       .  S
C349        C354   1.380       .  A
C349        C350   1.407       .  A
C349        O355   1.323       .  A
C350        C351   1.407       .  A
C350        H361   1.082       .  S
C351        C360   1.366       .  A
C351        C352   1.381       .  A
C352        C353   1.407       .  A
C352        O358   1.324       .  A
C353        C354   1.407       .  A
C353        H362   1.082       .  S
C354        C357   1.366       .  A
O355        C356   1.333       .  A
C356        C357   1.394       .  A
C357        H363   1.082       .  S
O358        C359   1.332       .  A
C359        C360   1.393       .  A
C360        H364   1.082       .  S
C365        C370   1.381       .  A
C365        C366   1.405       .  A
C365        O371   1.320       .  A
C366        C367   1.404       .  A
C366        H377   1.081   1_554  S
C367        C376   1.364       .  A
C367        C368   1.380       .  A
C368        C369   1.409       .  A
C368        O374   1.324       .  A
C369        C370   1.409       .  A
C369        H378   1.081       .  S
C370        C373   1.370       .  A
O371        C372   1.331       .  A
C372        C373   1.395       .  A
C373        H379   1.081       .  S
O374        C375   1.334       .  A
C375        C376   1.391       .  A
C376        H380   1.082   1_554  S
C381        C386   1.380       .  A
C381        C382   1.408       .  A
C381        O387   1.323       .  A
C382        C383   1.407       .  A
C382        H393   1.082       .  S
C383        C392   1.366       .  A
C383        C384   1.382       .  A
C384        C385   1.402       .  A
C384        O390   1.319       .  A
C385        C386   1.402       .  A
C385        H394   1.081       .  S
C386        C389   1.361       .  A
O387        C388   1.334       .  A
C388        C389   1.391       .  A
C389        H395   1.082       .  S
O390        C391   1.329       .  A
C391        C392   1.391       .  A
C392        H396   1.082       .  S
C397        C402   1.380       .  A
C397        C398   1.409       .  A
C397        O403   1.323       .  A
C398        C399   1.409       .  A
C398        H409   1.082       .  S
C399        C408   1.369       .  A
C399        C400   1.382       .  A
C400        C401   1.401       .  A
C400        O406   1.317       .  A
C401        C402   1.400       .  A
C401        H410   1.082   1_554  S
C402        C405   1.359       .  A
O403        C404   1.334       .  A
C404        C405   1.389       .  A
C405        H411   1.082   1_554  S
O406        C407   1.328       .  A
C407        C408   1.394       .  A
C408        H412   1.082       .  S
C413        C418   1.379       .  A
C413        C414   1.402       .  A
C413        O419   1.319       .  A
C414        C415   1.401       .  A
C414        H425   1.082       .  S
C415        C424   1.358       .  A
C415        C416   1.378       .  A
C416        C417   1.406       .  A
C416        O422   1.321       .  A
C417        C418   1.406       .  A
C417        H426   1.082       .  S
C418        C421   1.363       .  A
O419        C420   1.330       .  A
C420        C421   1.396       .  A
C421        H427   1.081       .  S
O422        C423   1.334       .  A
C423        C424   1.392       .  A
C424        H428   1.081       .  S
C429        C434   1.378       .  A
C429        C430   1.405       .  A
C429        O435   1.320       .  A
C430        C431   1.405       .  A
C430        H441   1.082       .  S
C431        C440   1.361       .  A
C431        C432   1.380       .  A
C432        C433   1.401       .  A
C432        O438   1.317       .  A
C433        C434   1.401       .  A
C433        H442   1.079       .  S
C434        C437   1.356       .  A
O435        C436   1.333       .  A
C436        C437   1.393       .  A
C437        H443   1.076       .  S
O438        C439   1.329       .  A
C439        C440   1.394       .  A
C440        H444   1.084       .  S
