geometry optimzed in LAMMPS
_audit_creation_date              2020-11-30 
_audit_creation_method            'lammps2cif' 
_symmetry_space_group_name_H-M    'P1' 
_symmetry_Int_Tables_number       1 
_symmetry_cell_setting            triclinic 
loop_ 
_symmetry_equiv_pos_as_xyz 
  x,y,z 
_cell_length_a                    27.778493998218273 
_cell_length_b                    28.213626365591722 
_cell_length_c                    47.21454128580101 
_cell_angle_alpha                 90.52352336100644 
_cell_angle_beta                  89.84859221992606 
_cell_angle_gamma                 120.07319984684254 
loop_ 
_atom_site_label 
_atom_site_type_symbol 
_atom_site_fract_x 
_atom_site_fract_y 
_atom_site_fract_z 
_atom_site_charge 
C1          C  0.05459444  0.00549712  0.75531348     0.03000
C2          C  0.00284461  0.95790209  0.75153999    -0.13150
C3          C  0.95655489  0.96181146  0.74382359     0.00500
C4          C  0.96163483  0.01338661  0.74035096    -0.11670
C5          C  0.01313056  0.06057322  0.74414617     0.02990
C6          C  0.05986224  0.05677000  0.75145556    -0.11100
H7          H  0.99907989  0.91793043  0.75363798     0.08590
H8          H  0.92576743  0.01676406  0.73447489     0.06120
H9          H  0.10024620  0.09348188  0.75363865     0.05960
O10         O  0.10101506  0.70842775  0.74599567    -0.74560
O11         O  0.11339852  0.84874279  0.75048133    -0.74590
O12         O  0.11377481  0.78435458  0.70752939    -0.74640
O13         O  0.10170128  0.77353652  0.78867994    -0.74690
O14         O  0.19424816  0.81432218  0.79186582    -0.74620
O15         O  0.20613539  0.82671917  0.71158426    -0.74600
O16         O  0.20599284  0.89046013  0.75451902    -0.74580
O17         O  0.19368885  0.75003051  0.74866074    -0.74640
Ni18       Ni  0.10410315  0.77745637  0.74795852     1.25410
Ni19       Ni  0.20328847  0.82170673  0.75172412     1.25360
C20         C  0.14587259  0.70643277  0.74677240     0.87620
C21         C  0.16085004  0.89192862  0.75394001     0.87560
C22         C  0.16226341  0.80693034  0.69625762     0.87580
C23         C  0.14630888  0.79265605  0.80351333     0.87750
C24         C  0.25777566  0.65071060  0.79971312     0.03000
C25         C  0.27534525  0.61798532  0.81269955    -0.13150
C26         C  0.33095910  0.64076609  0.82167429     0.00500
C27         C  0.36696573  0.69723986  0.81975919    -0.11670
C28         C  0.35012734  0.72968469  0.80519661     0.02990
C29         C  0.29432752  0.70725391  0.79753733    -0.11100
H30         H  0.24844497  0.57387661  0.81162543     0.08590
H31         H  0.41090837  0.71306392  0.82368672     0.06120
H32         H  0.28225205  0.73155815  0.78489147     0.05960
O33         O  0.28822922  0.41972332  0.76978096    -0.74560
O34         O  0.16442509  0.28732028  0.74304077    -0.74590
O35         O  0.24351635  0.37764558  0.71729091    -0.74640
O36         O  0.20763143  0.32951570  0.79455566    -0.74690
O37         O  0.15379311  0.36702260  0.79650717    -0.74620
O38         O  0.18884344  0.41433824  0.71995718    -0.74600
O39         O  0.10901856  0.32347192  0.74598834    -0.74580
O40         O  0.23358538  0.45677592  0.77195878    -0.74640
Ni41       Ni  0.22804783  0.35235586  0.75583959     1.25410
Ni42       Ni  0.16963050  0.39200706  0.75847400     1.25360
C43         C  0.27962588  0.45841962  0.77722034     0.87620
C44         C  0.11642594  0.28288290  0.74143358     0.87560
C45         C  0.22016635  0.40192368  0.70558261     0.87580
C46         C  0.17522837  0.34140623  0.80847399     0.87750
O47         O  0.54658329  0.77379564  0.74142510    -0.74560
O48         O  0.68953913  0.78542054  0.73448911    -0.74590
O49         O  0.62006781  0.77285347  0.77766608    -0.74640
O50         O  0.61488906  0.78449429  0.69775599    -0.74690
O51         O  0.65284288  0.87529303  0.70160125    -0.74620
O52         O  0.66023785  0.86359878  0.78242666    -0.74600
O53         O  0.72771796  0.87633449  0.73805389    -0.74580
O54         O  0.58669426  0.86459237  0.74633473    -0.74640
Ni55       Ni  0.61634925  0.77588956  0.73757496     1.25410
Ni56       Ni  0.65852593  0.87327242  0.74215498     1.25360
C57         C  0.54355735  0.81705110  0.74632447     0.87620
C58         C  0.73208619  0.83361809  0.73509924     0.87560
C59         C  0.63940370  0.81575582  0.79331428     0.87580
C60         C  0.63266368  0.83136169  0.68654211     0.87750
C61         C  0.56489595  0.82308666  0.52217134     0.03000
C62         C  0.58563888  0.83758711  0.54991698    -0.13150
C63         C  0.59756378  0.80388929  0.56629821     0.00500
C64         C  0.58798538  0.75393283  0.55493646    -0.11670
C65         C  0.56482391  0.73632273  0.52771772     0.02990
C66         C  0.55317464  0.77133350  0.51134144    -0.11100
H67         H  0.59053002  0.87472770  0.55955675     0.08590
H68         H  0.59591343  0.72722813  0.56804267     0.06120
H69         H  0.53390445  0.75777888  0.49071739     0.05960
C70         C  0.19177986  0.79314067  0.57633860     0.03000
C71         C  0.15727125  0.74343427  0.56263444    -0.13150
C72         C  0.16758513  0.73362626  0.53456906     0.00500
C73         C  0.21568623  0.77565888  0.52095030    -0.11670
C74         C  0.25352853  0.82426111  0.53567468     0.02990
C75         C  0.23877660  0.83368019  0.56266310    -0.11100
H76         H  0.12366006  0.71140544  0.57468399     0.08590
H77         H  0.22493282  0.77080682  0.49937257     0.06120
H78         H  0.26572890  0.87153562  0.57392841     0.05960
C79         C  0.17069981  0.78725834  0.92428422     0.03000
C80         C  0.13907322  0.74024842  0.94055666    -0.13150
C81         C  0.16149988  0.73011157  0.96480562     0.00500
C82         C  0.21407916  0.77057319  0.97480551    -0.11670
C83         C  0.24453133  0.82046975  0.96020511     0.02990
C84         C  0.22245539  0.82790076  0.93489782    -0.11100
H85         H  0.09919855  0.70824576  0.93265086     0.08590
H86         H  0.23299063  0.76122478  0.99228545     0.06120
H87         H  0.24819099  0.86366187  0.92225586     0.05960
C88         C  0.57069479  0.82970914  0.95457057     0.03000
C89         C  0.58146125  0.83089369  0.92540725    -0.13150
C90         C  0.59045648  0.79128248  0.91262981     0.00500
C91         C  0.58315940  0.74639194  0.92822267    -0.11670
C92         C  0.57025685  0.74181708  0.95729668     0.02990
C93         C  0.56661483  0.78533058  0.97057886    -0.11100
H94         H  0.58145252  0.86190856  0.91211139     0.08590
H95         H  0.58635743  0.71423307  0.91720570     0.06120
H96         H  0.56056767  0.78493551  0.99316331     0.05960
C97         C  0.17402645  0.43712754  0.54116479     0.03000
C98         C  0.17994890  0.43994406  0.57114027    -0.13150
C99         C  0.22366854  0.43735983  0.58451708     0.00500
C100        C  0.26447480  0.43569371  0.56799271    -0.11670
C101        C  0.25998269  0.43157158  0.53843342     0.02990
C102        C  0.21347132  0.42982822  0.52531336    -0.11100
H103        H  0.15066325  0.44368490  0.58461616     0.08590
H104        H  0.30010875  0.43763262  0.57843603     0.06120
H105        H  0.20893405  0.42257957  0.50277539     0.05960
C106        C  0.16854117  0.40376052  0.96732840     0.03000
C107        C  0.14978120  0.36228406  0.94639480    -0.13150
C108        C  0.18741609  0.35543502  0.92929612     0.00500
C109        C  0.24329155  0.38101717  0.93789171    -0.11670
C110        C  0.26268415  0.41796220  0.96081009     0.02990
C111        C  0.22575198  0.43124532  0.97456891    -0.11100
H112        H  0.10598573  0.33975669  0.94099970     0.08590
H113        H  0.27341195  0.37645485  0.92539335     0.06120
H114        H  0.24300886  0.46552782  0.98911021     0.05960
C115        C  0.49756256  0.51707388  0.98968843     0.00440
C116        C  0.52507517  0.49002572  0.99801498     0.00430
C117        C  0.03096597  0.50015046  0.99479909     0.00440
C118        C  0.97531155  0.47573387  0.00131182     0.00430
C119        C  0.47953069  0.50565228  0.49851431     0.00440
C120        C  0.50992017  0.48149812  0.49053955     0.00430
C121        C  0.96851213  0.48016017  0.48786503     0.00440
C122        C  0.02085785  0.50425399  0.49995685     0.00430
C123        C  0.50406684  0.02248130  0.99334365     0.00440
C124        C  0.47893604  0.96857371  0.98477189     0.00430
C125        C  0.50600261  0.02184116  0.48938796     0.00440
C126        C  0.47842832  0.96529223  0.49255514     0.00430
O127        O  0.74076156  0.22414201  0.27582027    -0.74560
O128        O  0.85669553  0.21704724  0.23713426    -0.74590
O129        O  0.77468919  0.23361119  0.21978174    -0.74640
O130        O  0.82273591  0.20797837  0.29137649    -0.74690
O131        O  0.76757653  0.11797095  0.28485586    -0.74620
O132        O  0.71651044  0.14393566  0.21490736    -0.74600
O133        O  0.79949955  0.12736230  0.23025367    -0.74580
O134        O  0.68451037  0.13381348  0.27130351    -0.74640
Ni135      Ni  0.80035060  0.22409955  0.25597959     1.25410
Ni136      Ni  0.73973266  0.12767949  0.24979225     1.25360
C137        C  0.69799868  0.17937783  0.28356160     0.87620
C138        C  0.84766486  0.17022370  0.22863137     0.87560
C139        C  0.74130279  0.19223901  0.20452089     0.87580
C140        C  0.80059231  0.15877066  0.30044784     0.87750
C141        C  0.65453513  0.28541047  0.32903652     0.03000
C142        C  0.63269914  0.27808564  0.30132286    -0.13150
C143        C  0.66529766  0.31118400  0.27923935     0.00500
C144        C  0.71609340  0.35662627  0.28510990    -0.11670
C145        C  0.73318219  0.37169262  0.31319890     0.02990
C146        C  0.70250533  0.33630502  0.33533700    -0.11100
H147        H  0.59244088  0.24342648  0.29599827     0.08590
H148        H  0.73950496  0.38345698  0.26782842     0.06120
H149        H  0.71726907  0.34726714  0.35690598     0.05960
O150        O  0.47281647  0.26526591  0.22113334    -0.74560
O151        O  0.32142575  0.20398240  0.24187497    -0.74590
O152        O  0.41714096  0.23966237  0.27085806    -0.74640
O153        O  0.37746548  0.23039925  0.19291085    -0.74690
O154        O  0.36653665  0.14677643  0.18946189    -0.74620
O155        O  0.40680535  0.15611422  0.26823050    -0.74600
O156        O  0.31051788  0.11997580  0.23928246    -0.74580
O157        O  0.46226383  0.18172922  0.21821867    -0.74640
Ni158      Ni  0.39755347  0.23771787  0.23184341     1.25410
Ni159      Ni  0.38606371  0.14802182  0.22873214     1.25360
C160        C  0.49286969  0.23375742  0.21656499     0.87620
C161        C  0.29104610  0.15197158  0.24332434     0.87560
C162        C  0.41766967  0.19923354  0.28261807     0.87580
C163        C  0.36735756  0.18830277  0.17806181     0.87750
O164        O  0.86899154  0.60208045  0.26002904    -0.74560
O165        O  0.90122407  0.74746642  0.24878848    -0.74590
O166        O  0.88033396  0.68260249  0.29404397    -0.74640
O167        O  0.88789853  0.66604457  0.21316218    -0.74690
O168        O  0.79692062  0.63596466  0.21036413    -0.74620
O169        O  0.79076019  0.65696363  0.28951493    -0.74600
O170        O  0.81090109  0.72000950  0.24385318    -0.74580
O171        O  0.77834618  0.57411142  0.25778765    -0.74640
Ni172      Ni  0.88802122  0.67568672  0.25378303     1.25410
Ni173      Ni  0.79105150  0.64566290  0.24988655     1.25360
C174        C  0.81839482  0.56623630  0.26472259     0.87620
C175        C  0.86173568  0.75781899  0.24606784     0.87560
C176        C  0.83312828  0.67001284  0.30512796     0.87580
C177        C  0.84324160  0.64888494  0.19846766     0.87750
C178        C  0.75034219  0.22467103  0.08302062     0.03000
C179        C  0.79908388  0.26609570  0.07043066    -0.13150
C180        C  0.80738409  0.26598014  0.04090135     0.00500
C181        C  0.76657435  0.22264010  0.02430145    -0.11670
C182        C  0.71657001  0.18236806  0.03647813     0.02990
C183        C  0.70896042  0.18438357  0.06573866    -0.11100
H184        H  0.83019122  0.29837379  0.08368488     0.08590
H185        H  0.77401022  0.22049282  0.00197162     0.06120
H186        H  0.67062398  0.15353005  0.07540956     0.05960
C187        C  0.75590644  0.57882414  0.03797568     0.03000
C188        C  0.78966412  0.55854027  0.02588803    -0.13150
C189        C  0.84029538  0.56920078  0.03856588     0.00500
C190        C  0.85691679  0.59852919  0.06406899    -0.11670
C191        C  0.82391208  0.61622560  0.07709567     0.02990
C192        C  0.77753512  0.61138083  0.06287275    -0.11100
H193        H  0.77701342  0.53242508  0.00742447     0.08590
H194        H  0.89355023  0.60381453  0.07505334     0.06120
H195        H  0.75882286  0.63195780  0.07311276     0.05960
C196        C  0.41610465  0.16667439  0.02037264     0.03000
C197        C  0.43336866  0.21734898  0.00682033    -0.13150
C198        C  0.41568400  0.25340394  0.01723764     0.00500
C199        C  0.37938649  0.23702242  0.04052017    -0.11670
C200        C  0.36726134  0.19012903  0.05598722     0.02990
C201        C  0.38256556  0.15355647  0.04465894    -0.11100
H202        H  0.46373677  0.23036813  0.98995151     0.08590
H203        H  0.36761896  0.26544206  0.04928143     0.06120
H204        H  0.37406158  0.11756238  0.05657004     0.05960
C205        C  0.74637413  0.58624911  0.46480942     0.03000
C206        C  0.78077020  0.56756320  0.47626224    -0.13150
C207        C  0.82872016  0.57533305  0.46142201     0.00500
C208        C  0.84053203  0.60173713  0.43505054    -0.11670
C209        C  0.80947440  0.62444111  0.42470983     0.02990
C210        C  0.76369531  0.61809361  0.44026873    -0.11100
H211        H  0.76836492  0.54470525  0.49571453     0.08590
H212        H  0.87181301  0.60132003  0.42151978     0.06120
H213        H  0.73744596  0.63259729  0.43144079     0.05960
C214        C  0.80407978  0.17661896  0.42011531     0.03000
C215        C  0.83788728  0.23132463  0.42917546    -0.13150
C216        C  0.82418998  0.25225858  0.45319633     0.00500
C217        C  0.77184105  0.21916244  0.46610042    -0.11670
C218        C  0.73712516  0.16466959  0.45685553     0.02990
C219        C  0.75742357  0.14248969  0.43664457    -0.11100
H220        H  0.87392594  0.25864530  0.41694938     0.08590
H221        H  0.75717399  0.23638852  0.48223580     0.06120
H222        H  0.73219293  0.09941516  0.43137309     0.05960
C223        C  0.45335020  0.18025483  0.44858256     0.03000
C224        C  0.44981697  0.22275649  0.46286559    -0.13150
C225        C  0.45325537  0.26754468  0.44773115     0.00500
C226        C  0.45720904  0.26756136  0.41793318    -0.11670
C227        C  0.46075278  0.22575243  0.40355716     0.02990
C228        C  0.46277766  0.18504793  0.41918607    -0.11100
H229        H  0.44428671  0.22120477  0.48559965     0.08590
H230        H  0.45823112  0.30039764  0.40577755     0.06120
H231        H  0.46993025  0.15570047  0.40782723     0.05960
C232        C  0.97868893  0.07742425  0.24090532     0.03000
C233        C  0.03567921  0.09931710  0.24443088    -0.13150
C234        C  0.05709492  0.06501726  0.25013342     0.00500
C235        C  0.02099771  0.00911912  0.25408123    -0.11670
C236        C  0.96354417  0.98728434  0.25138681     0.02990
C237        C  0.94243214  0.02134472  0.24465137    -0.11100
H238        H  0.06365964  0.14271030  0.24125583     0.08590
H239        H  0.03766979  0.98215613  0.25756516     0.06120
H240        H  0.89796601  0.00409921  0.24196272     0.05960
C241        C  0.90338698  0.84181697  0.27358732    -0.26450
C242        C  0.87617413  0.81455731  0.24861940    -0.14520
C243        C  0.87003726  0.84316767  0.22607697     0.36110
C244        C  0.89533969  0.90030683  0.22827367    -0.25890
C245        C  0.92677961  0.92798608  0.25240465    -0.15130
C246        C  0.92881362  0.89845644  0.27565802     0.37200
N247        N  0.95835402  0.92615448  0.30093630    -0.89380
H248        H  0.90717313  0.81916999  0.29106195     0.18310
H249        H  0.89395789  0.92352178  0.21044506     0.18300
N250        N  0.84105429  0.81464842  0.20072976    -0.88410
H251        H  0.98937190  0.91617734  0.30443758     0.35680
H252        H  0.93050865  0.91114346  0.31789191     0.40780
H253        H  0.86349578  0.79800666  0.19134231     0.40400
H254        H  0.84058235  0.84209089  0.18615196     0.35280
C255        C  0.87430478  0.67456595  0.11927067    -0.26450
C256        C  0.82968149  0.62643231  0.10802271    -0.14520
C257        C  0.79234600  0.58544535  0.12660785     0.36110
C258        C  0.79937237  0.59379703  0.15577551    -0.25890
C259        C  0.84304599  0.64228474  0.16732613    -0.15130
C260        C  0.88108119  0.68356690  0.14874083     0.37200
N261        N  0.92482997  0.73592921  0.15857492    -0.89380
H262        H  0.90333197  0.70584290  0.10505089     0.18310
H263        H  0.77000924  0.56191945  0.16965327     0.18300
N264        N  0.74744302  0.53428426  0.11642883    -0.88410
H265        H  0.96271010  0.73812666  0.15399574     0.35680
H266        H  0.92338199  0.74100903  0.18039191     0.40780
H267        H  0.76373884  0.51558710  0.10340649     0.40400
H268        H  0.72041308  0.54183505  0.10450067     0.35280
C269        C  0.87232296  0.69277936  0.35419669    -0.26450
C270        C  0.82574159  0.66566032  0.33630638    -0.14520
C271        C  0.77312916  0.62944859  0.34834930     0.36110
C272        C  0.76957319  0.61770334  0.37723097    -0.25890
C273        C  0.81638640  0.64301254  0.39491696    -0.15130
C274        C  0.86800941  0.68264143  0.38337596     0.37200
N275        N  0.91616978  0.71427823  0.40072853    -0.89380
H276        H  0.91253574  0.72159064  0.34541088     0.18310
H277        H  0.72985697  0.58740041  0.38591193     0.18300
N278        N  0.72364179  0.60269422  0.33119200    -0.88410
H279        H  0.92855719  0.68860158  0.40988759     0.35680
H280        H  0.90567622  0.73313896  0.41683116     0.40780
H281        H  0.71407499  0.63257530  0.32511506     0.40400
H282        H  0.68965022  0.57412755  0.34297868     0.35280
C283        C  0.20480614  0.14010923  0.22478198    -0.26450
C284        C  0.23167927  0.12893260  0.24639638    -0.14520
C285        C  0.20155235  0.09547279  0.26923848     0.36110
C286        C  0.14407808  0.07520115  0.27047177    -0.25890
C287        C  0.11716947  0.08680235  0.24877357    -0.15130
C288        C  0.14764156  0.11826550  0.22539407     0.37200
N289        N  0.12043515  0.12660044  0.20179343    -0.89380
H290        H  0.22822682  0.16470238  0.20684399     0.18310
H291        H  0.12025822  0.05044079  0.28824714     0.18300
N292        N  0.22943315  0.08344671  0.29118557    -0.88410
H293        H  0.12928049  0.11094709  0.18360911     0.35680
H294        H  0.13736719  0.16876917  0.19918314     0.40780
H295        H  0.24411171  0.05911433  0.28218739     0.40400
H296        H  0.20126834  0.05983437  0.30694904     0.35280
C297        C  0.32468311  0.14119713  0.13204295    -0.26450
C298        C  0.36016511  0.18961428  0.14706126    -0.14520
C299        C  0.39183948  0.23863817  0.13178912     0.36110
C300        C  0.38970095  0.23760507  0.10238131    -0.25890
C301        C  0.35618400  0.18906518  0.08702086    -0.15130
C302        C  0.32141006  0.14050356  0.10226882     0.37200
N303        N  0.28180296  0.09035816  0.08846132    -0.89380
H304        H  0.29931620  0.10359417  0.14351209     0.18310
H305        H  0.41763309  0.27511587  0.09148890     0.18300
N306        N  0.42971903  0.28975200  0.14524325    -0.88410
H307        H  0.29539949  0.06214304  0.09086645     0.35680
H308        H  0.27905285  0.09589316  0.06681409     0.40780
H309        H  0.45798570  0.28462881  0.15756055     0.40400
H310        H  0.40728984  0.30224859  0.15803192     0.35280
C311        C  0.47621238  0.25199147  0.32373989    -0.26450
C312        C  0.43069298  0.20317243  0.31332234    -0.14520
C313        C  0.39709028  0.16152482  0.33279955     0.36110
C314        C  0.40998670  0.17010889  0.36170956    -0.25890
C315        C  0.45450313  0.21931949  0.37222013    -0.15130
C316        C  0.48909503  0.26040144  0.35280555     0.37200
N317        N  0.53759294  0.31055546  0.36156592    -0.89380
H318        H  0.50238944  0.28398756  0.30904929     0.18310
H319        H  0.38310156  0.13845782  0.37638445     0.18300
N320        N  0.34822853  0.11111637  0.32463090    -0.88410
H321        H  0.57192543  0.31237598  0.35138016     0.35680
H322        H  0.54527140  0.31064760  0.38318356     0.40780
H323        H  0.33954444  0.10946702  0.30312357     0.40400
H324        H  0.31424139  0.10969861  0.33500101     0.35280
C325        C  0.76604089  0.50692498  0.30410920    -0.26450
C326        C  0.80642458  0.52000759  0.28305779    -0.14520
C327        C  0.83839422  0.49389023  0.28295250     0.36110
C328        C  0.82321171  0.44951442  0.30122826    -0.25890
C329        C  0.77457303  0.42945158  0.31763524    -0.15130
C330        C  0.75123219  0.46289660  0.32208227     0.37200
N331        N  0.70638128  0.44709271  0.34169811    -0.89380
H332        H  0.74442178  0.52977192  0.30601699     0.18310
H333        H  0.84229987  0.42438907  0.29852568     0.18300
N334        N  0.88320629  0.50984334  0.26316544    -0.88410
H335        H  0.67117121  0.44046072  0.33039599     0.35680
H336        H  0.71727696  0.47987065  0.35570264     0.40780
H337        H  0.86603262  0.50131243  0.24279442     0.40400
H338        H  0.90206166  0.48608843  0.26583056     0.35280
C339        C  0.58519768  0.31536974  0.21811738    -0.26450
C340        C  0.55351787  0.25846784  0.21384522    -0.14520
C341        C  0.57767152  0.22626125  0.22030087     0.36110
C342        C  0.62250767  0.24742254  0.23911092    -0.25890
C343        C  0.64303827  0.30015959  0.25039944    -0.15130
C344        C  0.62878600  0.33630950  0.23766169     0.37200
N345        N  0.65282485  0.39188684  0.24736361    -0.89380
H346        H  0.56946302  0.34164048  0.21125325     0.18310
H347        H  0.63606128  0.22052822  0.24769786     0.18300
N348        N  0.55235777  0.17032004  0.21107835    -0.88410
H349        H  0.62100119  0.39763295  0.25543113     0.35680
H350        H  0.67008902  0.41747212  0.22990009     0.40780
H351        H  0.54090473  0.14547632  0.22898952     0.40400
H352        H  0.58237208  0.16542470  0.20013283     0.35280
C353        C  0.93901204  0.18651187  0.24138262    -0.26450
C354        C  0.89478661  0.16310476  0.22197820    -0.14520
C355        C  0.88752361  0.11966859  0.20438182     0.36110
C356        C  0.91935446  0.09504827  0.20927185    -0.25890
C357        C  0.95677966  0.11244818  0.23206393    -0.15130
C358        C  0.96891665  0.16018850  0.24747334     0.37200
N359        N  0.00749036  0.17869654  0.27081862    -0.89380
H360        H  0.94457890  0.22018937  0.25488739     0.18310
H361        H  0.91171352  0.05958128  0.19669963     0.18300
N362        N  0.84500720  0.09796379  0.18309987    -0.88410
H363        H  0.01132410  0.21436468  0.27990706     0.35680
H364        H  0.99085655  0.14864542  0.28644724     0.40780
H365        H  0.81762676  0.05672219  0.18756926     0.40400
H366        H  0.86382237  0.09987658  0.16360926     0.35280
C367        C  0.74691158  0.24984203  0.16290876    -0.26450
C368        C  0.73664242  0.19920159  0.17360101    -0.14520
C369        C  0.72938531  0.15747391  0.15422777     0.36110
C370        C  0.73324357  0.16753051  0.12510574    -0.25890
C371        C  0.74433276  0.21815952  0.11433069    -0.15130
C372        C  0.74972793  0.25956576  0.13353453     0.37200
N373        N  0.75731945  0.31128535  0.12423598    -0.89380
H374        H  0.75279191  0.28220476  0.17749715     0.18310
H375        H  0.72943340  0.13585385  0.11056455     0.18300
N376        N  0.72102461  0.10576444  0.16406026    -0.88410
H377        H  0.72396934  0.31479452  0.13203642     0.35680
H378        H  0.75475227  0.31244245  0.10224790     0.40780
H379        H  0.75782423  0.11327414  0.17393524     0.40400
H380        H  0.71480228  0.07920596  0.14708739     0.35280
C381        C  0.75872409  0.12416305  0.37586137    -0.26450
C382        C  0.80859203  0.15894636  0.39050160    -0.14520
C383        C  0.85897439  0.18270932  0.37474264     0.36110
C384        C  0.85666444  0.18017269  0.34496467    -0.25890
C385        C  0.80577633  0.14972612  0.33070222    -0.15130
C386        C  0.75693119  0.11828423  0.34645657     0.37200
N387        N  0.70434533  0.08499856  0.33242351    -0.89380
H388        H  0.71944701  0.10407733  0.38676398     0.18310
H389        H  0.89470148  0.20255185  0.33289733     0.18300
N390        N  0.91274976  0.20778530  0.38801778    -0.88410
H391        H  0.67158939  0.06850427  0.34695322     0.35680
H392        H  0.70533428  0.05170228  0.32316898     0.40780
H393        H  0.90951263  0.20128683  0.40986022     0.40400
H394        H  0.93295452  0.24986207  0.38423350     0.35280
C395        C  0.59709218  0.18567112  0.33452704    -0.26450
C396        C  0.63938129  0.23535065  0.34658965    -0.14520
C397        C  0.68713813  0.23271693  0.35364854     0.36110
C398        C  0.70616728  0.20990632  0.33309480    -0.25890
C399        C  0.67112512  0.18094964  0.31007671    -0.15130
C400        C  0.61383333  0.16193840  0.31284702     0.37200
N401        N  0.57480815  0.12475400  0.29250908    -0.89380
H402        H  0.55444906  0.17706507  0.33470143     0.18310
H403        H  0.74890794  0.21886398  0.33373494     0.18300
N404        N  0.72197537  0.26387314  0.37690519    -0.88410
H405        H  0.55523282  0.14395311  0.28297654     0.35680
H406        H  0.54451664  0.09078485  0.30345841     0.40780
H407        H  0.76065463  0.29311011  0.36887169     0.40400
H408        H  0.72881196  0.23739562  0.38935355     0.35280
C409        C  0.66313046  0.12348408  0.49412151    -0.26450
C410        C  0.67743226  0.13141750  0.46537188    -0.14520
C411        C  0.63438446  0.10420073  0.44483885     0.36110
C412        C  0.58081439  0.06491949  0.45351206    -0.25890
C413        C  0.56655397  0.05601682  0.48217827    -0.15130
C414        C  0.60792533  0.08778236  0.50265477     0.36540
N415        N  0.59480043  0.08225435  0.53223817    -0.89380
H416        H  0.69500888  0.14471632  0.51007921     0.18310
H417        H  0.54889893  0.04361257  0.43757336     0.18300
N418        N  0.64270374  0.11691170  0.41514514    -0.88410
H419        H  0.60605398  0.12110088  0.54028974     0.35680
H420        H  0.61988436  0.06972136  0.54241901     0.40780
H421        H  0.68055186  0.15250045  0.41172717     0.40400
H422        H  0.61298822  0.12708896  0.40878295     0.35280
C423        C  0.44903839  0.04534533  0.45834118    -0.26450
C424        C  0.47541338  0.05236615  0.48448528    -0.14520
C425        C  0.48419811  0.09729136  0.50170731     0.36110
C426        C  0.47423156  0.13798795  0.49055414    -0.25890
C427        C  0.45031072  0.13183164  0.46351964    -0.15130
C428        C  0.43090920  0.08076964  0.44931794     0.37200
N429        N  0.39216804  0.06294114  0.42608856    -0.89380
H430        H  0.44512522  0.01383150  0.44387020     0.18310
H431        H  0.48754784  0.17538314  0.50256425     0.18300
N432        N  0.50546369  0.10269586  0.52990246    -0.88410
H433        H  0.41255435  0.06211525  0.40759479     0.35680
H434        H  0.37566974  0.08864096  0.42327474     0.40780
H435        H  0.47589259  0.06930495  0.54149194     0.40400
H436        H  0.50973775  0.13792068  0.53978632     0.35280
C437        C  0.59410100  0.10786933  0.98615569    -0.26450
C438        C  0.56520604  0.05631583  0.99907193    -0.14520
C439        C  0.59118713  0.04406883  0.02120509     0.36110
C440        C  0.64449274  0.08427067  0.03036495    -0.25890
C441        C  0.67059014  0.13786552  0.01957731    -0.15130
C442        C  0.64540261  0.14902307  0.99652565     0.37200
N443        N  0.66789004  0.20267424  0.98482242    -0.89380
H444        H  0.57415603  0.11789193  0.96941530     0.18310
H445        H  0.66363057  0.07528196  0.04791308     0.18300
N446        N  0.56197700  0.99270632  0.03574587    -0.88410
H447        H  0.70568462  0.21356034  0.97501579     0.35680
H448        H  0.67426684  0.23057616  0.00111822     0.40780
H449        H  0.52774642  0.99111375  0.04592942     0.40400
H450        H  0.58692613  0.99035780  0.05157713     0.35280
C451        C  0.48174762  0.07673259  0.02696447    -0.26450
C452        C  0.47316414  0.05248517  0.99995283    -0.14520
C453        C  0.44709713  0.06756137  0.97902412     0.36110
C454        C  0.42934181  0.10545597  0.98587876    -0.25890
C455        C  0.43949093  0.13058726  0.01279646    -0.15130
C456        C  0.46751339  0.11664274  0.03330166     0.37200
N457        N  0.48544202  0.14435754  0.06021908    -0.89380
H458        H  0.50360323  0.06732406  0.04292920     0.18310
H459        H  0.40790885  0.11578449  0.97011411     0.18300
N460        N  0.44013094  0.04570571  0.95079523    -0.88410
H461        H  0.45992402  0.11754339  0.07590507     0.35680
H462        H  0.48257417  0.17980734  0.06121399     0.40780
H463        H  0.47975259  0.06025436  0.94219947     0.40400
H464        H  0.42000215  0.06055232  0.93802133     0.35280
C465        C  0.87949934  0.48176309  0.49137695    -0.26450
C466        C  0.93585452  0.50908395  0.48316267    -0.14520
C467        C  0.95689623  0.55933868  0.46874889     0.36110
C468        C  0.92224482  0.58183612  0.46449448    -0.25890
C469        C  0.86498231  0.55291935  0.47121221    -0.15130
C470        C  0.84346811  0.50148568  0.48449368     0.37200
N471        N  0.78485156  0.46780707  0.48970064    -0.89380
H472        H  0.86250893  0.44303948  0.50222246     0.18310
H473        H  0.93983424  0.62154216  0.45458565     0.18300
N474        N  0.01247490  0.58668579  0.45757349    -0.88410
H475        H  0.77605724  0.43137022  0.49963631     0.35680
H476        H  0.76477013  0.45671053  0.47003594     0.40780
H477        H  0.01499546  0.56146837  0.44202594     0.40400
H478        H  0.02133657  0.62309604  0.44759450     0.35280
C479        C  0.91192403  0.37975471  0.49952699    -0.26450
C480        C  0.93817148  0.42078588  0.47907386    -0.14520
C481        C  0.92694629  0.40576598  0.45017232     0.36110
C482        C  0.88961174  0.35143324  0.44242847    -0.25890
C483        C  0.86290624  0.31014907  0.46278649    -0.15130
C484        C  0.87528763  0.32459422  0.49175109     0.37200
N485        N  0.85073829  0.28337259  0.51319283    -0.89380
H486        H  0.91812439  0.39109802  0.52167047     0.18310
H487        H  0.88049845  0.34191255  0.42012918     0.18300
N488        N  0.95229678  0.44509387  0.42807993    -0.88410
H489        H  0.86387087  0.30075449  0.53335261     0.35680
H490        H  0.86563313  0.25622449  0.51022137     0.40780
H491        H  0.99544954  0.46515839  0.43078899     0.40400
H492        H  0.93892993  0.47360019  0.42969841     0.35280
C493        C  0.44378141  0.39588035  0.46343114    -0.26450
C494        C  0.48389879  0.42089580  0.48493285    -0.14520
C495        C  0.50613213  0.39038334  0.49741050     0.36110
C496        C  0.49334788  0.33938278  0.48587255    -0.25890
C497        C  0.45692423  0.31635473  0.46274982    -0.15130
C498        C  0.42918683  0.34353346  0.45266240     0.37200
N499        N  0.38722448  0.31845853  0.43106892    -0.89380
H500        H  0.42609809  0.41850979  0.45387799     0.18310
H501        H  0.51394058  0.31865349  0.49444810     0.18300
N502        N  0.54242505  0.41018794  0.52160433    -0.88410
H503        H  0.37100766  0.34370142  0.42597253     0.35680
H504        H  0.35444317  0.28263244  0.43951736     0.40780
H505        H  0.54233486  0.44370034  0.53108455     0.40400
H506        H  0.58279557  0.42274216  0.51464302     0.35280
C507        C  0.64686445  0.53309173  0.45181985    -0.26450
C508        C  0.68666232  0.56189703  0.47300066    -0.14520
C509        C  0.66816527  0.56829105  0.49996470     0.36110
C510        C  0.61065276  0.54427265  0.50529880    -0.25890
C511        C  0.57103411  0.51425572  0.48409079    -0.15130
C512        C  0.58981606  0.51026565  0.45684823     0.37200
N513        N  0.55059824  0.48268850  0.43428834    -0.89380
H514        H  0.66055978  0.52847072  0.43097885     0.18310
H515        H  0.59680006  0.54791137  0.52625655     0.18300
N516        N  0.70658964  0.59965408  0.52201224    -0.88410
H517        H  0.57098372  0.48296509  0.41558833     0.35680
H518        H  0.53049747  0.50489319  0.43028813     0.40780
H519        H  0.73321171  0.63904010  0.51440519     0.40400
H520        H  0.73030134  0.58153171  0.52693369     0.35280
C521        C  0.92377850  0.49631390  0.03739676    -0.26450
C522        C  0.94621626  0.50644256  0.00994530    -0.14520
C523        C  0.93139093  0.53574619  0.99098606     0.36110
C524        C  0.89541229  0.55473986  0.00028672    -0.25890
C525        C  0.87335193  0.54428398  0.02785227    -0.15130
C526        C  0.88663655  0.51328988  0.04623709     0.37200
N527        N  0.86144383  0.49828311  0.07380471    -0.89380
H528        H  0.93384030  0.47294106  0.05186521     0.18310
H529        H  0.88503848  0.57829777  0.98611470     0.18300
N530        N  0.95060020  0.54416729  0.96220102    -0.88410
H531        H  0.87547899  0.47540896  0.08471916     0.35680
H532        H  0.81863869  0.47270992  0.07083863     0.40780
H533        H  0.99256920  0.57414504  0.96235688     0.40400
H534        H  0.93056671  0.56042695  0.95039111     0.35280
C535        C  0.95099987  0.39057315  0.02825982    -0.26450
C536        C  0.93993745  0.41497623  0.00524949    -0.14520
C537        C  0.88779064  0.38525893  0.99134857     0.36110
C538        C  0.84648531  0.33565031  0.00258892    -0.25890
C539        C  0.85586665  0.31344827  0.02705435    -0.15130
C540        C  0.90993950  0.33965102  0.03893593     0.37200
N541        N  0.92253675  0.31530928  0.06227296    -0.89380
H542        H  0.99026609  0.41314709  0.03935074     0.18310
H543        H  0.80569815  0.31574322  0.99277146     0.18300
N544        N  0.87451213  0.40513374  0.96636712    -0.88410
H545        H  0.96400515  0.33982380  0.06857066     0.35680
H546        H  0.91824910  0.27824202  0.05505059     0.40780
H547        H  0.90955107  0.43912810  0.95819458     0.40400
H548        H  0.84576536  0.41717127  0.97203618     0.35280
C549        C  0.46858048  0.39174529  0.97979909    -0.26450
C550        C  0.49545936  0.42874755  0.00246392    -0.14520
C551        C  0.49647539  0.40669003  0.02922923     0.36110
C552        C  0.47205895  0.35023271  0.03257048    -0.25890
C553        C  0.44513687  0.31317968  0.01021147    -0.15130
C554        C  0.44335505  0.33443741  0.98344883     0.37200
N555        N  0.41520466  0.29893948  0.95992675    -0.89380
H556        H  0.46751516  0.40749511  0.95911410     0.18310
H557        H  0.47386477  0.33495396  0.05328110     0.18300
N558        N  0.52056507  0.44010236  0.05394221    -0.88410
H559        H  0.37388079  0.27252475  0.96573611     0.35680
H560        H  0.43390692  0.27544997  0.95567797     0.40780
H561        H  0.50590608  0.46758344  0.05609602     0.40400
H562        H  0.56373674  0.46107370  0.05203255     0.35280
C563        C  0.67845218  0.53048271  0.00092242    -0.26450
C564        C  0.69759515  0.56232502  0.02619323    -0.14520
C565        C  0.65820171  0.57385970  0.03997483     0.36110
C566        C  0.60526979  0.55579576  0.02816982    -0.25890
C567        C  0.58596550  0.51993901  0.00508426    -0.15130
C568        C  0.62304871  0.50716706  0.99125703     0.37200
N569        N  0.60403343  0.46983703  0.96749596    -0.89380
H570        H  0.70539434  0.52151253  0.98848503     0.18310
H571        H  0.57654974  0.56489515  0.03923393     0.18300
N572        N  0.66838031  0.60032929  0.06700202    -0.88410
H573        H  0.63592571  0.46399194  0.95966764     0.35680
H574        H  0.59314221  0.48754460  0.95121691     0.40780
H575        H  0.63823159  0.57353701  0.08121014     0.40400
H576        H  0.66427496  0.63503141  0.06506317     0.35280
C577        C  0.09235390  0.46348648  0.01039598    -0.26450
C578        C  0.05812406  0.46640496  0.98945407    -0.14520
C579        C  0.05679903  0.44452415  0.96239468     0.36110
C580        C  0.09407417  0.42606370  0.95595447    -0.25890
C581        C  0.12981281  0.42400159  0.97656074    -0.15130
C582        C  0.12646854  0.44083685  0.00462450     0.37200
N583        N  0.15481535  0.43347664  0.02797339    -0.89380
H584        H  0.09288436  0.47942512  0.03143471     0.18310
H585        H  0.09562259  0.41406245  0.93430373     0.18300
N586        N  0.01994583  0.44427139  0.94099654    -0.88410
H587        H  0.19739782  0.46061562  0.02644407     0.35680
H588        H  0.14705921  0.39318724  0.02762656     0.40780
H589        H  0.97946688  0.41613546  0.94723282     0.40400
H590        H  0.02626415  0.42971935  0.92170759     0.35280
C591        C  0.42111153  0.49388387  0.95518091    -0.26450
C592        C  0.43670065  0.48672314  0.98236326    -0.14520
C593        C  0.39486686  0.45968171  0.00286872     0.36110
C594        C  0.33854866  0.43876583  0.99558298    -0.25890
C595        C  0.32299870  0.44582706  0.96831097    -0.15130
C596        C  0.36539570  0.47535014  0.94807292     0.37200
N597        N  0.35395558  0.48873142  0.92045786    -0.89380
H598        H  0.45310314  0.51652443  0.93959430     0.18310
H599        H  0.30672704  0.41672258  0.01132572     0.18300
N600        N  0.40945027  0.45497366  0.03132414    -0.88410
H601        H  0.37658884  0.53136824  0.91860738     0.35680
H602        H  0.31242882  0.47831780  0.91837220     0.40780
H603        H  0.38929105  0.41338481  0.03638107     0.40400
H604        H  0.39424822  0.47410260  0.04476317     0.35280
C605        C  0.08073453  0.43345371  0.54348031    -0.26450
C606        C  0.12779563  0.44327307  0.52728068    -0.14520
C607        C  0.13089295  0.46302666  0.49915678     0.36110
C608        C  0.08831547  0.47194649  0.48886886    -0.25890
C609        C  0.04804811  0.47123975  0.50706341    -0.15130
C610        C  0.04384582  0.45074647  0.53448893     0.37200
N611        N  0.00395927  0.45012744  0.55397541    -0.89380
H612        H  0.07337486  0.41501325  0.56413067     0.18310
H613        H  0.09087069  0.48665521  0.46748588     0.18300
N614        N  0.17890153  0.47864723  0.48171030    -0.88410
H615        H  0.02559599  0.47491151  0.57133959     0.35680
H616        H  0.97942123  0.41009874  0.56127275     0.40780
H617        H  0.21248572  0.51250786  0.49140056     0.40400
H618        H  0.17401715  0.49165700  0.46180044     0.35280
C619        C  0.33041691  0.47556082  0.50033738    -0.26450
C620        C  0.30785275  0.43601736  0.52168062    -0.14520
C621        C  0.33758609  0.40943772  0.52987076     0.36110
C622        C  0.39224739  0.42943139  0.52021683    -0.25890
C623        C  0.41723388  0.47367427  0.50141650    -0.15130
C624        C  0.38382399  0.49347686  0.48959733     0.37200
N625        N  0.40333167  0.53290644  0.46721857    -0.89380
H626        H  0.30779239  0.49518802  0.49301784     0.18310
H627        H  0.41645449  0.41269578  0.52906167     0.18300
N628        N  0.31406244  0.36277634  0.54821239    -0.88410
H629        H  0.41318297  0.57085443  0.47602903     0.35680
H630        H  0.43899647  0.53648095  0.45775761     0.40780
H631        H  0.27199329  0.34846623  0.55208302     0.40400
H632        H  0.33530142  0.37481560  0.56755214     0.35280
C633        C  0.51308930  0.85335733  0.98634920    -0.26450
C634        C  0.55718423  0.87120861  0.96693852    -0.14520
C635        C  0.58188354  0.92630422  0.95713326     0.36110
C636        C  0.55710223  0.95801852  0.96364348    -0.25890
C637        C  0.51048727  0.93821709  0.98140660    -0.15130
C638        C  0.49066375  0.88656028  0.99404352     0.37200
N639        N  0.44710061  0.86731878  0.01464451    -0.89380
H640        H  0.49382788  0.81230176  0.99476869     0.18310
H641        H  0.57382574  0.99806432  0.95419653     0.18300
N642        N  0.63296315  0.95235000  0.94139509    -0.88410
H643        H  0.46197346  0.85975089  0.03339432     0.35680
H644        H  0.41390096  0.83023401  0.00732993     0.40780
H645        H  0.62381666  0.95720120  0.92049636     0.40400
H646        H  0.65297200  0.92944670  0.94145731     0.35280
C647        C  0.59061571  0.66550079  0.96429524    -0.26450
C648        C  0.55877693  0.68985468  0.97208673    -0.14520
C649        C  0.51101128  0.65848327  0.98908249     0.36110
C650        C  0.49623729  0.60483847  0.99681522    -0.25890
C651        C  0.52501763  0.57880232  0.98658027    -0.15130
C652        C  0.57263241  0.61011996  0.96978826     0.37200
N653        N  0.60018196  0.58512205  0.95590974    -0.89380
H654        H  0.62751283  0.68819200  0.95145761     0.18310
H655        H  0.45903066  0.58171730  0.00939251     0.18300
N656        N  0.47382583  0.67757980  0.99705363    -0.88410
H657        H  0.64218822  0.60684227  0.96169520     0.35680
H658        H  0.59770062  0.58913692  0.93405025     0.40780
H659        H  0.46185355  0.69022399  0.97896454     0.40400
H660        H  0.49387297  0.71017938  0.01131444     0.35280
C661        C  0.34367545  0.87455495  0.94604007    -0.26450
C662        C  0.30376072  0.86044206  0.96747048    -0.14520
C663        C  0.32134153  0.88623006  0.99436078     0.36110
C664        C  0.37810952  0.92353634  0.99933213    -0.25890
C665        C  0.41806823  0.93584723  0.97800564    -0.15130
C666        C  0.39987420  0.91158228  0.95087651     0.37200
N667        N  0.43736064  0.92392055  0.92757161    -0.89380
H668        H  0.33120546  0.85573608  0.92523022     0.18310
H669        H  0.39133898  0.94167131  0.02022426     0.18300
N670        N  0.28262460  0.87645660  0.01673112    -0.88410
H671        H  0.46351138  0.90814751  0.93151945     0.35680
H672        H  0.46118109  0.96639653  0.92540265     0.40780
H673        H  0.26338247  0.83529306  0.02238883     0.40400
H674        H  0.25232001  0.88486202  0.00924707     0.35280
C675        C  0.10786240  0.65793572  0.00118001    -0.26450
C676        C  0.13492140  0.67268263  0.97483454    -0.14520
C677        C  0.13127456  0.63101439  0.95655547     0.36110
C678        C  0.09689086  0.57629576  0.96371503    -0.25890
C679        C  0.06728816  0.56056653  0.98936029    -0.15130
C680        C  0.07531454  0.60221747  0.00898895     0.37200
N681        N  0.05117619  0.58805598  0.03672784    -0.89380
H682        H  0.11154862  0.68985478  0.01546999     0.18310
H683        H  0.09351654  0.54596689  0.94856130     0.18300
N684        N  0.16223875  0.64242172  0.93057147    -0.88410
H685        H  0.06123693  0.62333009  0.04856609     0.35680
H686        H  0.06910966  0.56811345  0.04712525     0.40780
H687        H  0.19087379  0.68396998  0.92817816     0.40400
H688        H  0.13396484  0.63005218  0.91374260     0.35280
C689        C  0.41110838  0.92118215  0.53144873    -0.26450
C690        C  0.41907745  0.93558672  0.50281416    -0.14520
C691        C  0.37181184  0.91285912  0.48475575     0.36110
C692        C  0.31829107  0.87842727  0.49590418    -0.25890
C693        C  0.31061032  0.86317967  0.52449754    -0.15130
C694        C  0.35830240  0.88396532  0.54223765     0.37200
N695        N  0.35362504  0.86490791  0.57080269    -0.89380
H696        H  0.44722037  0.93640686  0.54514829     0.18310
H697        H  0.28271270  0.86219434  0.48181400     0.18300
N698        N  0.37771447  0.92077588  0.45481206    -0.88410
H699        H  0.39231683  0.88411215  0.58096471     0.35680
H700        H  0.34071705  0.82317874  0.56970714     0.40780
H701        H  0.35320096  0.93739583  0.44857152     0.40400
H702        H  0.36128541  0.88243357  0.44494150     0.35280
C703        C  0.07239154  0.64982147  0.52965521    -0.26450
C704        C  0.12918415  0.67777522  0.52163120    -0.14520
C705        C  0.14810496  0.64804700  0.50509935     0.36110
C706        C  0.11110767  0.59369173  0.49729530    -0.25890
C707        C  0.05576180  0.56474617  0.50701132    -0.15130
C708        C  0.03680443  0.59340566  0.52408394     0.37200
N709        N  0.98227518  0.56513406  0.53645419    -0.89380
H710        H  0.05606158  0.67138859  0.54176095     0.18310
H711        H  0.12715120  0.57406460  0.48365498     0.18300
N712        N  0.20503117  0.66969934  0.49705950    -0.88410
H713        H  0.97465938  0.59205594  0.54840602     0.35680
H714        H  0.98131082  0.53631913  0.55053642     0.40780
H715        H  0.23087314  0.68718748  0.51469029     0.40400
H716        H  0.21502283  0.69802017  0.48087935     0.35280
C717        C  0.55995938  0.95134830  0.50547466    -0.26450
C718        C  0.50710948  0.93099343  0.49316900    -0.14520
C719        C  0.47859845  0.87464383  0.48506124     0.36110
C720        C  0.49940310  0.84006139  0.49277952    -0.25890
C721        C  0.55037829  0.86074935  0.50695073    -0.15130
C722        C  0.58324150  0.91809660  0.51057004     0.37200
N723        N  0.63953219  0.94223134  0.52077286    -0.89380
H724        H  0.58272769  0.99228875  0.51312032     0.18310
H725        H  0.47401647  0.79645213  0.48883093     0.18300
N726        N  0.42754272  0.85147842  0.46957106    -0.88410
H727        H  0.65805691  0.98482065  0.52239793     0.35680
H728        H  0.66219974  0.93437893  0.50560364     0.40780
H729        H  0.39671506  0.81951550  0.48145034     0.40400
H730        H  0.43262549  0.83489284  0.45067140     0.35280
C731        C  0.51730197  0.63731774  0.53911387    -0.26450
C732        C  0.54647896  0.67838289  0.51899154    -0.14520
C733        C  0.55762677  0.66250959  0.49220022     0.36110
C734        C  0.53682838  0.60644875  0.48608179    -0.25890
C735        C  0.50654684  0.56559577  0.50623719    -0.15130
C736        C  0.49837429  0.58218178  0.53335823     0.37200
N737        N  0.47175233  0.54419086  0.55591440    -0.89380
H738        H  0.50828000  0.64801776  0.55977668     0.18310
H739        H  0.54410371  0.59469523  0.46530075     0.18300
N740        N  0.59152548  0.70158350  0.47116475    -0.88410
H741        H  0.42948888  0.51984845  0.55141257     0.35680
H742        H  0.48995786  0.51969318  0.55783990     0.40780
H743        H  0.61059919  0.74165512  0.47890678     0.40400
H744        H  0.56558592  0.69834591  0.45435089     0.35280
C745        C  0.66367360  0.82169026  0.63914068    -0.26450
C746        C  0.62892339  0.83345926  0.65568266    -0.14520
C747        C  0.58662454  0.83929901  0.64255316     0.36110
C748        C  0.57892008  0.83110482  0.61329048    -0.25890
C749        C  0.61268728  0.81785725  0.59661728    -0.15130
C750        C  0.65730181  0.81541752  0.60966848     0.37200
N751        N  0.69683154  0.80690573  0.59394288    -0.89380
H752        H  0.69599208  0.81700814  0.64927437     0.18310
H753        H  0.54460786  0.83309629  0.60365547     0.18300
N754        N  0.54945175  0.85141494  0.65815002    -0.88410
H755        H  0.73639378  0.84008820  0.59831075     0.35680
H756        H  0.69159103  0.80832633  0.57216788     0.40780
H757        H  0.55863758  0.85674602  0.67975761     0.40400
H758        H  0.50937481  0.81767215  0.65607538     0.35280
C759        C  0.58081881  0.76497440  0.83367400    -0.26450
C760        C  0.63201023  0.80834842  0.82425846    -0.14520
C761        C  0.67136736  0.84432892  0.84444320     0.36110
C762        C  0.65657828  0.83809741  0.87319987    -0.25890
C763        C  0.60474687  0.79560779  0.88229010    -0.15130
C764        C  0.56678124  0.75824878  0.86244361     0.37200
N765        N  0.51354884  0.71458996  0.87153073    -0.89380
H766        H  0.55049717  0.73732813  0.81835326     0.18310
H767        H  0.68609870  0.86618512  0.88867144     0.18300
N768        N  0.72655740  0.88649787  0.83683588    -0.88410
H769        H  0.49047214  0.69055729  0.85424442     0.35680
H770        H  0.49137533  0.73234465  0.87996566     0.40780
H771        H  0.73477617  0.88390353  0.81549834     0.40400
H772        H  0.75467556  0.87909165  0.84788864     0.35280
C773        C  0.22886988  0.46129757  0.66464465    -0.26450
C774        C  0.22648095  0.41335296  0.67471625    -0.14520
C775        C  0.22415435  0.37440275  0.65481280     0.36110
C776        C  0.22333467  0.38364971  0.62581304    -0.25890
C777        C  0.22482748  0.43103081  0.61573219    -0.15130
C778        C  0.22876365  0.47082560  0.63548905     0.37200
N779        N  0.23454946  0.52186477  0.62665570    -0.89380
H780        H  0.23079915  0.49162122  0.67957211     0.18310
H781        H  0.22062276  0.35293484  0.61090351     0.18300
N782        N  0.22003107  0.32387318  0.66330039    -0.88410
H783        H  0.19904702  0.51429048  0.61543623     0.35680
H784        H  0.26892845  0.54104074  0.61320795     0.40780
H785        H  0.18524775  0.30298742  0.67634656     0.40400
H786        H  0.25581367  0.33256866  0.67464869     0.35280
C787        C  0.19538613  0.30939785  0.85407143    -0.26450
C788        C  0.16567061  0.32975682  0.83934265    -0.14520
C789        C  0.13280665  0.34580134  0.85508519     0.36110
C790        C  0.13692248  0.34915566  0.88457564    -0.25890
C791        C  0.17182455  0.33510192  0.89937713    -0.15130
C792        C  0.19775867  0.31074226  0.88395778     0.37200
N793        N  0.22743138  0.28873910  0.89857213    -0.89380
H794        H  0.21893979  0.29472965  0.84231074     0.18310
H795        H  0.11550403  0.36703336  0.89550229     0.18300
N796        N  0.09719150  0.36168361  0.84132209    -0.88410
H797        H  0.24403117  0.27239065  0.88417424     0.35680
H798        H  0.19862277  0.25619534  0.91089295     0.40780
H799        H  0.10994773  0.40213774  0.84716977     0.40400
H800        H  0.05668956  0.33669716  0.84875096     0.35280
C801        C  0.39096269  0.75623221  0.75813216    -0.26450
C802        C  0.39238193  0.77170623  0.78669350    -0.14520
C803        C  0.44204113  0.81488794  0.79801405     0.36110
C804        C  0.49097051  0.83510188  0.78230225    -0.25890
C805        C  0.49091200  0.81140436  0.75596948    -0.15130
C806        C  0.44004729  0.77446769  0.74294701     0.37200
N807        N  0.43725938  0.75275957  0.71506097    -0.89380
H808        H  0.35281169  0.72374715  0.74891339     0.18310
H809        H  0.52994805  0.86469922  0.79215750     0.18300
N810        N  0.44442011  0.83592702  0.82602535    -0.88410
H811        H  0.45787870  0.73036499  0.71486027     0.35680
H812        H  0.45748339  0.78561014  0.70118368     0.40780
H813        H  0.43259342  0.80438344  0.84060163     0.40400
H814        H  0.41572128  0.84956355  0.82713755     0.35280
C815        C  0.36055495  0.55106164  0.78168884    -0.26450
C816        C  0.32010138  0.50352397  0.79476006    -0.14520
C817        C  0.30681357  0.50523349  0.82342463     0.36110
C818        C  0.32571399  0.55593536  0.83678141    -0.25890
C819        C  0.35391719  0.60374037  0.82082412    -0.15130
C820        C  0.37872635  0.60179903  0.79495715     0.37200
N821        N  0.41455565  0.65110980  0.77997930    -0.89380
H822        H  0.37218321  0.54961506  0.75990268     0.18310
H823        H  0.30830791  0.55724294  0.85715752     0.18300
N824        N  0.26824327  0.45601786  0.83766983    -0.88410
H825        H  0.39586110  0.64993623  0.76059006     0.35680
H826        H  0.45183398  0.65172195  0.77579794     0.40780
H827        H  0.23379502  0.45939339  0.84365285     0.40400
H828        H  0.28733560  0.45314155  0.85611270     0.35280
C829        C  0.21224216  0.79923408  0.65522400    -0.26450
C830        C  0.16901068  0.80705600  0.66520976    -0.14520
C831        C  0.13336508  0.81188365  0.64537490     0.36110
C832        C  0.14102594  0.80681477  0.61631982    -0.25890
C833        C  0.18430182  0.79888338  0.60675884    -0.15130
C834        C  0.22005412  0.79509518  0.62633956     0.37200
N835        N  0.26351938  0.78548626  0.61691155    -0.89380
H836        H  0.23953171  0.79479415  0.66998690     0.18310
H837        H  0.11379298  0.81018321  0.60108647     0.18300
N838        N  0.09111192  0.82443893  0.65353295    -0.88410
H839        H  0.25702678  0.74904251  0.62593955     0.35680
H840        H  0.30131298  0.81739753  0.62459525     0.40780
H841        H  0.09518437  0.83733123  0.67460127     0.40400
H842        H  0.05253543  0.78879640  0.65108375     0.35280
C843        C  0.16127243  0.83741397  0.85069024    -0.26450
C844        C  0.14328364  0.78945464  0.83458671    -0.14520
C845        C  0.12802954  0.73992080  0.84821102     0.36110
C846        C  0.13525684  0.73992444  0.87760149    -0.25890
C847        C  0.15549812  0.78824746  0.89398054    -0.15130
C848        C  0.16612389  0.83707281  0.88037943     0.37200
N849        N  0.18221055  0.88608696  0.89664596    -0.89380
H850        H  0.17218807  0.87532158  0.83999754     0.18310
H851        H  0.12737793  0.70224067  0.88744023     0.18300
N852        N  0.10788028  0.69027939  0.83194681    -0.88410
H853        H  0.18840227  0.91819746  0.88342845     0.35680
H854        H  0.14899336  0.87841423  0.90996390     0.40780
H855        H  0.07021424  0.68179637  0.82268926     0.40400
H856        H  0.09855656  0.65736902  0.84524900     0.35280
C857        C  0.21883440  0.63448025  0.75195781    -0.26450
C858        C  0.20867954  0.62615066  0.78115468    -0.14520
C859        C  0.15688200  0.61520159  0.79183528     0.36110
C860        C  0.12305146  0.62708505  0.77495565    -0.25890
C861        C  0.14391921  0.65390727  0.74913955    -0.15130
C862        C  0.18669425  0.64949442  0.73575440     0.37200
N863        N  0.20363984  0.66998949  0.70766432    -0.89380
H864        H  0.25731194  0.63979178  0.74317591     0.18310
H865        H  0.08723737  0.62645148  0.78448686     0.18300
N866        N  0.14110711  0.59829074  0.82048487    -0.88410
H867        H  0.20326371  0.63882683  0.69534607     0.35680
H868        H  0.24462593  0.70259005  0.70855737     0.40780
H869        H  0.17101784  0.62775630  0.83405145     0.40400
H870        H  0.14113573  0.56159230  0.82329914     0.35280
C871        C  0.01581540  0.14305989  0.76309964    -0.26450
C872        C  0.01978899  0.11456621  0.73967632    -0.14520
C873        C  0.04236634  0.14181020  0.71411827     0.36110
C874        C  0.06704977  0.19877887  0.71329949    -0.25890
C875        C  0.06929752  0.22804135  0.73781916    -0.15130
C876        C  0.04080101  0.20004853  0.76237350     0.37200
N877        N  0.04337442  0.22987756  0.78761502    -0.89380
H878        H  0.99855374  0.12182268  0.78281802     0.18310
H879        H  0.08969564  0.22044427  0.69454696     0.18300
N880        N  0.04455786  0.11213563  0.68984736    -0.88410
H881        H  0.06286771  0.21977803  0.80345352     0.35680
H882        H  0.00266453  0.21684625  0.79413667     0.40780
H883        H  0.02443405  0.11919485  0.67311477     0.40400
H884        H  0.08627700  0.12806818  0.68426252     0.35280
C885        C  0.87714987  0.90624716  0.71247463    -0.26450
C886        C  0.90241539  0.91262935  0.73893292    -0.14520
C887        C  0.87201033  0.87818964  0.76153114     0.36110
C888        C  0.81463097  0.84259584  0.75810964    -0.25890
C889        C  0.78821670  0.84265014  0.73289493    -0.15130
C890        C  0.81994772  0.87174012  0.70939132     0.37200
N891        N  0.79313806  0.87081431  0.68334311    -0.89380
H892        H  0.90089266  0.93214410  0.69498688     0.18310
H893        H  0.78963151  0.82052231  0.77623320     0.18300
N894        N  0.89830656  0.88306150  0.78844386    -0.88410
H895        H  0.81018465  0.85824420  0.66719273     0.35680
H896        H  0.80231245  0.91075865  0.67897536     0.40780
H897        H  0.91037919  0.92190572  0.79678900     0.40400
H898        H  0.86989984  0.85470595  0.80275242     0.35280
C899        C  0.13419416  0.00249994  0.73532545    -0.26450
C900        C  0.10347005  0.99975536  0.75946599    -0.14520
C901        C  0.10934469  0.97663806  0.78456379     0.36110
C902        C  0.13933071  0.94900919  0.78369019    -0.25890
C903        C  0.16114994  0.94305694  0.75801455    -0.15130
C904        C  0.16257919  0.97321431  0.73419630     0.37200
N905        N  0.18785147  0.96944640  0.70828100    -0.89380
H906        H  0.12983240  0.02113463  0.71624973     0.18310
H907        H  0.13899500  0.92578838  0.80194419     0.18300
N908        N  0.08124054  0.97752438  0.81002816    -0.88410
H909        H  0.18538893  0.99445072  0.69281625     0.35680
H910        H  0.16482512  0.92924239  0.70063117     0.40780
H911        H  0.03843219  0.95318504  0.80664061     0.40400
H912        H  0.09098957  0.95958400  0.82668574     0.35280
loop_ 
_geom_bond_atom_site_label_1 
_geom_bond_atom_site_label_2 
_geom_bond_distance 
_geom_bond_site_symmetry_2 
_ccdc_geom_bond_type 
C1            C2   1.401   1_545  A
C1            C6   1.393       .  A
C1          C900   1.460   1_545  S
C2            C3   1.394   1_455  A
C2            H7   1.085   1_455  S
C3            C4   1.401   1_565  A
C3          C886   1.465       .  S
C4            C5   1.393   1_655  A
C4            H8   1.084       .  S
C5            C6   1.399       .  A
C5          C872   1.457       .  S
C6            H9   1.084       .  S
O10         Ni18   1.907       .  S
O10          C20   1.276       .  A
O11         Ni18   1.898       .  S
O11          C21   1.279       .  A
O12         Ni18   1.925       .  S
O12          C22   1.283       .  A
O13         Ni18   1.926       .  S
O13          C23   1.282       .  A
O14         Ni19   1.911       .  S
O14          C23   1.279       .  A
O15         Ni19   1.900       .  S
O15          C22   1.279       .  A
O16         Ni19   1.907       .  S
O16          C21   1.276       .  A
O17         Ni19   1.907       .  S
O17          C20   1.283       .  A
Ni18        Ni19   2.394       .  S
C20         C861   1.461       .  S
C21         C903   1.449       .  S
C22         C830   1.477       .  S
C23         C844   1.470       .  S
C24          C25   1.389       .  A
C24          C29   1.402       .  A
C24         C858   1.468       .  S
C25          C26   1.408       .  A
C25          H30   1.085       .  S
C26          C27   1.397       .  A
C26         C819   1.472       .  S
C27          C28   1.404       .  A
C27          H31   1.085       .  S
C28          C29   1.396       .  A
C28         C802   1.472       .  S
C29          H32   1.085       .  S
O33         Ni41   1.908       .  S
O33          C43   1.275       .  A
O34         Ni41   1.895       .  S
O34          C44   1.278       .  A
O35         Ni41   1.928       .  S
O35          C45   1.284       .  A
O36         Ni41   1.931       .  S
O36          C46   1.285       .  A
O37         Ni42   1.903       .  S
O37          C46   1.279       .  A
O38         Ni42   1.915       .  S
O38          C45   1.280       .  A
O39         Ni42   1.909       .  S
O39          C44   1.277       .  A
O40         Ni42   1.906       .  S
O40          C43   1.281       .  A
Ni41        Ni42   2.391       .  S
C43         C816   1.456       .  S
C44         C875   1.450       .  S
C45         C774   1.486       .  S
C46         C788   1.491       .  S
O47         Ni55   1.917       .  S
O47          C57   1.284       .  A
O48         Ni55   1.918       .  S
O48          C58   1.279       .  A
O49         Ni55   1.901       .  S
O49          C59   1.278       .  A
O50         Ni55   1.901       .  S
O50          C60   1.277       .  A
O51         Ni56   1.925       .  S
O51          C60   1.283       .  A
O52         Ni56   1.927       .  S
O52          C59   1.284       .  A
O53         Ni56   1.890       .  S
O53          C58   1.277       .  A
O54         Ni56   1.895       .  S
O54          C57   1.274       .  A
Ni55        Ni56   2.394       .  S
C57         C805   1.461       .  S
C58         C889   1.452       .  S
C59         C760   1.477       .  S
C60         C746   1.465       .  S
C61          C62   1.405       .  A
C61          C66   1.418       .  A
C61         C721   1.501       .  S
C62          C63   1.394       .  A
C62          H67   1.083       .  S
C63          C64   1.399       .  A
C63         C749   1.486       .  S
C64          C65   1.409       .  A
C64          H68   1.084       .  S
C65          C66   1.419       .  A
C65         C732   1.502       .  S
C66          H69   1.082       .  S
C70          C71   1.394       .  A
C70          C75   1.394       .  A
C70         C833   1.470       .  S
C71          C72   1.409       .  A
C71          H76   1.083       .  S
C72          C73   1.424       .  A
C72         C704   1.515       .  S
C73          C74   1.418       .  A
C73          H77   1.074       .  S
C74          C75   1.401       .  A
C74         C693   1.503       .  S
C75          H78   1.084       .  S
C79          C80   1.403       .  A
C79          C84   1.405       .  A
C79         C847   1.497       .  S
C80          C81   1.403       .  A
C80          H85   1.084       .  S
C81          C82   1.408       .  A
C81         C676   1.486       .  S
C82          C83   1.412       .  A
C82          H86   1.082       .  S
C83          C84   1.409       .  A
C83         C662   1.494       .  S
C84          H87   1.082       .  S
C88          C89   1.405       .  A
C88          C93   1.424       .  A
C88         C634   1.510       .  S
C89          C90   1.394       .  A
C89          H94   1.082       .  S
C90          C91   1.395       .  A
C90         C763   1.475       .  S
C91          C92   1.408       .  A
C91          H95   1.083       .  S
C92          C93   1.422       .  A
C92         C648   1.512       .  S
C93          H96   1.078       .  S
C97          C98   1.422       .  A
C97         C102   1.422       .  A
C97         C606   1.529       .  S
C98          C99   1.405       .  A
C98         H103   1.077       .  S
C99         C100   1.394       .  A
C99         C777   1.489       .  S
C100        C101   1.400       .  A
C100        H104   1.083       .  S
C101        C102   1.413       .  A
C101        C620   1.496       .  S
C102        H105   1.077       .  S
C106        C107   1.410       .  A
C106        C111   1.417       .  A
C106        C581   1.511       .  S
C107        C108   1.406       .  A
C107        H112   1.083       .  S
C108        C109   1.404       .  A
C108        C791   1.501       .  S
C109        C110   1.403       .  A
C109        H113   1.081       .  S
C110        C111   1.411       .  A
C110        C595   1.493       .  S
C111        H114   1.078       .  S
C115        C116   1.383       .  D
C115        C592   1.503       .  S
C115        C651   1.520       .  S
C116        C550   1.513   1_556  S
C116        C567   1.501   1_556  S
C117        C118   1.376   1_456  D
C117        C578   1.501       .  S
C117        C679   1.507       .  S
C118        C522   1.505       .  S
C118        C536   1.502       .  S
C119        C120   1.374       .  D
C119        C623   1.505       .  S
C119        C735   1.508       .  S
C120        C494   1.507       .  S
C120        C511   1.503       .  S
C121        C122   1.382   1_655  D
C121        C466   1.511       .  S
C121        C480   1.504       .  S
C122        C609   1.504       .  S
C122        C707   1.515       .  S
C123        C124   1.375   1_545  D
C123        C438   1.497       .  S
C123        C452   1.508       .  S
C124        C637   1.509       .  S
C124        C665   1.499       .  S
C125        C126   1.391   1_545  D
C125        C413   1.501       .  S
C125        C424   1.502       .  S
C126        C690   1.508       .  S
C126        C718   1.531       .  S
O127       Ni135   1.900       .  S
O127        C137   1.282       .  A
O128       Ni135   1.893       .  S
O128        C138   1.276       .  A
O129       Ni135   1.926       .  S
O129        C139   1.283       .  A
O130       Ni135   1.921       .  S
O130        C140   1.282       .  A
O131       Ni136   1.908       .  S
O131        C140   1.280       .  A
O132       Ni136   1.912       .  S
O132        C139   1.281       .  A
O133       Ni136   1.901       .  S
O133        C138   1.280       .  A
O134       Ni136   1.916       .  S
O134        C137   1.278       .  A
Ni135      Ni136   2.391       .  S
C137        C399   1.468       .  S
C138        C354   1.453       .  S
C139        C368   1.489       .  S
C140        C385   1.473       .  S
C141        C142   1.413       .  A
C141        C146   1.415       .  A
C141        C396   1.511       .  S
C142        C143   1.394       .  A
C142        H147   1.082       .  S
C143        C144   1.376       .  A
C143        C343   1.462       .  S
C144        C145   1.398       .  A
C144        H148   1.085       .  S
C145        C146   1.406       .  A
C145        C329   1.462       .  S
C146        H149   1.082       .  S
O150       Ni158   1.898       .  S
O150        C160   1.280       .  A
O151       Ni158   1.894       .  S
O151        C161   1.277       .  A
O152       Ni158   1.915       .  S
O152        C162   1.280       .  A
O153       Ni158   1.902       .  S
O153        C163   1.278       .  A
O154       Ni159   1.928       .  S
O154        C163   1.284       .  A
O155       Ni159   1.931       .  S
O155        C162   1.285       .  A
O156       Ni159   1.901       .  S
O156        C161   1.277       .  A
O157       Ni159   1.902       .  S
O157        C160   1.279       .  A
Ni158      Ni159   2.390       .  S
C160        C340   1.471       .  S
C161        C284   1.445       .  S
C162        C312   1.485       .  S
C163        C298   1.481       .  S
O164       Ni172   1.895       .  S
O164        C174   1.275       .  A
O165       Ni172   1.886       .  S
O165        C175   1.276       .  A
O166       Ni172   1.931       .  S
O166        C176   1.286       .  A
O167       Ni172   1.934       .  S
O167        C177   1.285       .  A
O168       Ni173   1.902       .  S
O168        C177   1.278       .  A
O169       Ni173   1.896       .  S
O169        C176   1.277       .  A
O170       Ni173   1.907       .  S
O170        C175   1.277       .  A
O171       Ni173   1.907       .  S
O171        C174   1.283       .  A
Ni172      Ni173   2.392       .  S
C174        C326   1.465       .  S
C175        C242   1.446       .  S
C176        C270   1.483       .  S
C177        C259   1.480       .  S
C178        C179   1.405       .  A
C178        C183   1.399       .  A
C178        C371   1.490       .  S
C179        C180   1.413       .  A
C179        H184   1.082       .  S
C180        C181   1.412       .  A
C180        C539   1.496       .  S
C181        C182   1.406       .  A
C181        H185   1.081       .  S
C182        C183   1.402       .  A
C182        C441   1.491       .  S
C183        H186   1.084       .  S
C187        C188   1.436       .  A
C187        C192   1.420       .  A
C187        C564   1.547       .  S
C188        C189   1.416       .  A
C188        H193   1.076       .  S
C189        C190   1.396       .  A
C189        C525   1.494       .  S
C190        C191   1.385       .  A
C190        H194   1.084       .  S
C191        C192   1.398       .  A
C191        C256   1.479       .  S
C192        H195   1.066       .  S
C196        C197   1.418       .  A
C196        C201   1.406       .  A
C196        C455   1.497       .  S
C197        C198   1.417       .  A
C197        H202   1.083   1_554  S
C198        C199   1.405       .  A
C198        C553   1.500       .  S
C199        C200   1.402       .  A
C199        H203   1.085       .  S
C200        C201   1.400       .  A
C200        C301   1.494       .  S
C201        H204   1.083       .  S
C205        C206   1.413       .  A
C205        C210   1.401       .  A
C205        C508   1.494       .  S
C206        C207   1.421       .  A
C206        H211   1.079       .  S
C207        C208   1.408       .  A
C207        C469   1.508       .  S
C208        C209   1.398       .  A
C208        H212   1.082       .  S
C209        C210   1.399       .  A
C209        C273   1.484       .  S
C210        H213   1.085       .  S
C214        C215   1.409       .  A
C214        C219   1.405       .  A
C214        C382   1.506       .  S
C215        C216   1.411       .  A
C215        H220   1.078       .  S
C216        C217   1.415       .  A
C216        C483   1.503       .  S
C217        C218   1.410       .  A
C217        H221   1.083       .  S
C218        C219   1.400       .  A
C218        C410   1.495       .  S
C219        H222   1.083       .  S
C223        C224   1.416       .  A
C223        C228   1.407       .  A
C223        C427   1.508       .  S
C224        C225   1.418       .  A
C224        H229   1.082       .  S
C225        C226   1.411       .  A
C225        C497   1.501       .  S
C226        C227   1.401       .  A
C226        H230   1.082       .  S
C227        C228   1.395       .  A
C227        C315   1.489       .  S
C228        H231   1.081       .  S
C232        C233   1.391   1_655  A
C232        C237   1.399       .  A
C232        C357   1.460       .  S
C233        C234   1.395       .  A
C233        H238   1.084       .  S
C234        C235   1.395       .  A
C234        C287   1.463       .  S
C235        C236   1.399   1_445  A
C235        H239   1.084   1_545  S
C236        C237   1.393   1_565  A
C236        C245   1.461       .  S
C237        H240   1.084       .  S
C241        C242   1.399       .  A
C241        C246   1.389       .  A
C241        H248   1.085       .  S
C242        C243   1.403       .  A
C243        C244   1.402       .  A
C243        N250   1.437       .  S
C244        C245   1.406       .  A
C244        H249   1.084       .  S
C245        C246   1.402       .  A
C246        N247   1.433       .  S
N247        H251   1.046       .  S
N247        H252   1.046       .  S
N250        H253   1.046       .  S
N250        H254   1.046       .  S
C255        C256   1.402       .  A
C255        C260   1.408       .  A
C255        H262   1.084       .  S
C256        C257   1.412       .  A
C257        C258   1.393       .  A
C257        N264   1.434       .  S
C258        C259   1.403       .  A
C258        H263   1.085       .  S
C259        C260   1.422       .  A
C260        N261   1.437       .  S
N261        H265   1.045       .  S
N261        H266   1.042       .  S
N264        H267   1.046       .  S
N264        H268   1.045       .  S
C269        C270   1.405       .  A
C269        C274   1.402       .  A
C269        H276   1.084       .  S
C270        C271   1.419       .  A
C271        C272   1.398       .  A
C271        N278   1.439       .  S
C272        C273   1.401       .  A
C272        H277   1.084       .  S
C273        C274   1.415       .  A
C274        N275   1.433       .  S
N275        H279   1.042       .  S
N275        H280   1.045       .  S
N278        H281   1.045       .  S
N278        H282   1.046       .  S
C283        C284   1.394       .  A
C283        C288   1.386       .  A
C283        H290   1.085       .  S
C284        C285   1.406       .  A
C285        C286   1.402       .  A
C285        N292   1.436       .  S
C286        C287   1.404       .  A
C286        H291   1.084       .  S
C287        C288   1.408       .  A
C288        N289   1.434       .  S
N289        H293   1.046       .  S
N289        H294   1.046       .  S
N292        H295   1.045       .  S
N292        H296   1.046       .  S
C297        C298   1.406       .  A
C297        C302   1.408       .  A
C297        H304   1.084       .  S
C298        C299   1.415       .  A
C299        C300   1.389       .  A
C299        N306   1.434       .  S
C300        C301   1.406       .  A
C300        H305   1.082       .  S
C301        C302   1.420       .  A
C302        N303   1.437       .  S
N303        H307   1.045       .  S
N303        H308   1.044       .  S
N306        H309   1.046       .  S
N306        H310   1.045       .  S
C311        C312   1.408       .  A
C311        C316   1.407       .  A
C311        H318   1.084       .  S
C312        C313   1.419       .  A
C313        C314   1.400       .  A
C313        N320   1.439       .  S
C314        C315   1.405       .  A
C314        H319   1.084       .  S
C315        C316   1.416       .  A
C316        N317   1.439       .  S
N317        H321   1.045       .  S
N317        H322   1.043       .  S
N320        H323   1.040       .  S
N320        H324   1.045       .  S
C325        C326   1.403       .  A
C325        C330   1.392       .  A
C325        H332   1.082       .  S
C326        C327   1.410       .  A
C327        C328   1.407       .  A
C327        N334   1.437       .  S
C328        C329   1.408       .  A
C328        H333   1.084       .  S
C329        C330   1.401       .  A
C330        N331   1.433       .  S
N331        H335   1.046       .  S
N331        H336   1.046       .  S
N334        H337   1.046       .  S
N334        H338   1.045       .  S
C339        C340   1.404       .  A
C339        C344   1.395       .  A
C339        H346   1.084       .  S
C340        C341   1.409       .  A
C341        C342   1.395       .  A
C341        N348   1.432       .  S
C342        C343   1.400       .  A
C342        H347   1.084       .  S
C343        C344   1.406       .  A
C344        N345   1.433       .  S
N345        H349   1.046       .  S
N345        H350   1.045       .  S
N348        H351   1.046       .  S
N348        H352   1.046       .  S
C353        C354   1.402       .  A
C353        C358   1.396       .  A
C353        H360   1.084       .  S
C354        C355   1.403       .  A
C355        C356   1.392       .  A
C355        N362   1.432       .  S
C356        C357   1.402       .  A
C356        H361   1.084       .  S
C357        C358   1.409       .  A
C358        N359   1.439   1_655  S
N359        H363   1.046       .  S
N359        H364   1.046   1_455  S
N362        H365   1.046       .  S
N362        H366   1.045       .  S
C367        C368   1.408       .  A
C367        C372   1.411       .  A
C367        H374   1.084       .  S
C368        C369   1.417       .  A
C369        C370   1.399       .  A
C369        N376   1.439       .  S
C370        C371   1.402       .  A
C370        H375   1.084       .  S
C371        C372   1.420       .  A
C372        N373   1.439       .  S
N373        H377   1.046       .  S
N373        H378   1.043       .  S
N376        H379   1.044       .  S
N376        H380   1.046       .  S
C381        C382   1.411       .  A
C381        C386   1.395       .  A
C381        H388   1.077       .  S
C382        C383   1.423       .  A
C383        C384   1.407       .  A
C383        N390   1.436       .  S
C384        C385   1.403       .  A
C384        H389   1.084       .  S
C385        C386   1.408       .  A
C386        N387   1.440       .  S
N387        H391   1.046       .  S
N387        H392   1.045       .  S
N390        H393   1.045       .  S
N390        H394   1.045       .  S
C395        C396   1.417       .  A
C395        C400   1.418       .  A
C395        H402   1.083       .  S
C396        C397   1.406       .  A
C397        C398   1.401       .  A
C397        N404   1.432       .  S
C398        C399   1.410       .  A
C398        H403   1.083       .  S
C399        C400   1.408       .  A
C400        N401   1.430       .  S
N401        H405   1.045       .  S
N401        H406   1.045       .  S
N404        H407   1.046       .  S
N404        H408   1.044       .  S
C409        C410   1.401       .  A
C409        C414   1.409       .  A
C409        H416   1.084       .  S
C410        C411   1.425       .  A
C411        C412   1.401       .  A
C411        N418   1.439       .  S
C412        C413   1.398       .  A
C412        H417   1.084       .  S
C413        C414   1.420       .  A
C414        N415   1.433       .  S
N415        H419   1.046       .  S
N415        H420   1.046       .  S
N418        H421   1.041       .  S
N418        H422   1.046       .  S
C423        C424   1.398       .  A
C423        C428   1.395       .  A
C423        H430   1.078       .  S
C424        C425   1.414       .  A
C425        C426   1.415       .  A
C425        N432   1.433       .  S
C426        C427   1.409       .  A
C426        H431   1.082       .  S
C427        C428   1.422       .  A
C428        N429   1.438       .  S
N429        H433   1.046       .  S
N429        H434   1.043       .  S
N432        H435   1.046       .  S
N432        H436   1.046       .  S
C437        C438   1.405       .  A
C437        C442   1.398       .  A
C437        H444   1.084       .  S
C438        C439   1.412   1_556  A
C439        C440   1.406       .  A
C439        N446   1.438   1_545  S
C440        C441   1.409       .  A
C440        H445   1.084       .  S
C441        C442   1.416   1_554  A
C442        N443   1.433       .  S
N443        H447   1.043       .  S
N443        H448   1.045   1_556  S
N446        H449   1.045       .  S
N446        H450   1.046       .  S
C451        C452   1.405   1_554  A
C451        C456   1.398       .  A
C451        H458   1.084       .  S
C452        C453   1.415       .  A
C453        C454   1.419       .  A
C453        N460   1.436       .  S
C454        C455   1.408   1_556  A
C454        H459   1.083       .  S
C455        C456   1.420       .  A
C456        N457   1.439       .  S
N457        H461   1.046       .  S
N457        H462   1.043       .  S
N460        H463   1.045       .  S
N460        H464   1.045       .  S
C465        C466   1.410       .  A
C465        C470   1.407       .  A
C465        H472   1.082       .  S
C466        C467   1.414       .  A
C467        C468   1.409       .  A
C467        N474   1.438   1_655  S
C468        C469   1.413       .  A
C468        H473   1.083       .  S
C469        C470   1.415       .  A
C470        N471   1.437       .  S
N471        H475   1.046       .  S
N471        H476   1.046       .  S
N474        H477   1.044       .  S
N474        H478   1.045       .  S
C479        C480   1.405       .  A
C479        C484   1.413       .  A
C479        H486   1.079       .  S
C480        C481   1.414       .  A
C481        C482   1.399       .  A
C481        N488   1.432       .  S
C482        C483   1.408       .  A
C482        H487   1.083       .  S
C483        C484   1.416       .  A
C484        N485   1.437       .  S
N485        H489   1.046       .  S
N485        H490   1.045       .  S
N488        H491   1.046       .  S
N488        H492   1.043       .  S
C493        C494   1.405       .  A
C493        C498   1.411       .  A
C493        H500   1.083       .  S
C494        C495   1.419       .  A
C495        C496   1.403       .  A
C495        N502   1.436       .  S
C496        C497   1.404       .  A
C496        H501   1.084       .  S
C497        C498   1.417       .  A
C498        N499   1.437       .  S
N499        H503   1.046       .  S
N499        H504   1.045       .  S
N502        H505   1.044       .  S
N502        H506   1.046       .  S
C507        C508   1.405       .  A
C507        C512   1.400       .  A
C507        H514   1.084       .  S
C508        C509   1.415       .  A
C509        C510   1.411       .  A
C509        N516   1.431       .  S
C510        C511   1.410       .  A
C510        H515   1.083       .  S
C511        C512   1.411       .  A
C512        N513   1.438       .  S
N513        H517   1.046       .  S
N513        H518   1.046       .  S
N516        H519   1.045       .  S
N516        H520   1.044       .  S
C521        C522   1.405       .  A
C521        C526   1.399       .  A
C521        H528   1.083       .  S
C522        C523   1.418   1_554  A
C523        C524   1.417   1_556  A
C523        N530   1.436       .  S
C524        C525   1.406       .  A
C524        H529   1.083   1_554  S
C525        C526   1.412       .  A
C526        N527   1.439       .  S
N527        H531   1.046       .  S
N527        H532   1.046       .  S
N530        H533   1.042       .  S
N530        H534   1.046       .  S
C535        C536   1.406       .  A
C535        C540   1.410       .  A
C535        H542   1.082       .  S
C536        C537   1.418   1_554  A
C537        C538   1.399   1_556  A
C537        N544   1.436       .  S
C538        C539   1.405       .  A
C538        H543   1.084   1_554  S
C539        C540   1.415       .  A
C540        N541   1.437       .  S
N541        H545   1.046       .  S
N541        H546   1.045       .  S
N544        H547   1.042       .  S
N544        H548   1.046       .  S
C549        C550   1.412   1_556  A
C549        C554   1.416       .  A
C549        H556   1.083       .  S
C550        C551   1.420       .  A
C551        C552   1.394       .  A
C551        N558   1.432       .  S
C552        C553   1.403       .  A
C552        H557   1.084       .  S
C553        C554   1.415   1_554  A
C554        N555   1.431       .  S
N555        H559   1.045       .  S
N555        H560   1.045       .  S
N558        H561   1.045       .  S
N558        H562   1.042       .  S
C563        C564   1.421       .  A
C563        C568   1.412   1_554  A
C563        H570   1.074   1_554  S
C564        C565   1.441       .  A
C565        C566   1.407       .  A
C565        N572   1.428       .  S
C566        C567   1.392       .  A
C566        H571   1.084       .  S
C567        C568   1.408   1_554  A
C568        N569   1.439       .  S
N569        H573   1.045       .  S
N569        H574   1.045       .  S
N572        H575   1.046       .  S
N572        H576   1.046       .  S
C577        C578   1.405   1_554  A
C577        C582   1.408       .  A
C577        H584   1.084       .  S
C578        C579   1.406       .  A
C579        C580   1.404       .  A
C579        N586   1.438       .  S
C580        C581   1.414       .  A
C580        H585   1.081       .  S
C581        C582   1.422   1_556  A
C582        N583   1.432       .  S
N583        H587   1.041       .  S
N583        H588   1.045       .  S
N586        H589   1.044   1_455  S
N586        H590   1.046       .  S
C591        C592   1.404       .  A
C591        C596   1.404       .  A
C591        H598   1.084       .  S
C592        C593   1.410   1_556  A
C593        C594   1.410   1_554  A
C593        N600   1.431       .  S
C594        C595   1.406       .  A
C594        H599   1.084   1_556  S
C595        C596   1.421       .  A
C596        N597   1.440       .  S
N597        H601   1.046       .  S
N597        H602   1.043       .  S
N600        H603   1.046       .  S
N600        H604   1.045       .  S
C605        C606   1.416       .  A
C605        C610   1.406       .  A
C605        H612   1.079       .  S
C606        C607   1.430       .  A
C607        C608   1.415       .  A
C607        N614   1.436       .  S
C608        C609   1.401       .  A
C608        H613   1.084       .  S
C609        C610   1.404       .  A
C610        N611   1.432       .  S
N611        H615   1.046       .  S
N611        H616   1.046   1_455  S
N614        H617   1.046       .  S
N614        H618   1.046       .  S
C619        C620   1.403       .  A
C619        C624   1.401       .  A
C619        H626   1.084       .  S
C620        C621   1.422       .  A
C621        C622   1.405       .  A
C621        N628   1.437       .  S
C622        C623   1.406       .  A
C622        H627   1.083       .  S
C623        C624   1.419       .  A
C624        N625   1.436       .  S
N625        H629   1.045       .  S
N625        H630   1.044       .  S
N628        H631   1.044       .  S
N628        H632   1.046       .  S
C633        C634   1.406       .  A
C633        C638   1.405       .  A
C633        H640   1.083       .  S
C634        C635   1.430       .  A
C635        C636   1.407       .  A
C635        N642   1.437       .  S
C636        C637   1.404       .  A
C636        H641   1.083       .  S
C637        C638   1.412       .  A
C638        N639   1.432   1_556  S
N639        H643   1.046       .  S
N639        H644   1.045       .  S
N642        H645   1.047       .  S
N642        H646   1.042       .  S
C647        C648   1.412       .  A
C647        C652   1.408       .  A
C647        H654   1.083       .  S
C648        C649   1.421       .  A
C649        C650   1.407       .  A
C649        N656   1.432       .  S
C650        C651   1.411       .  A
C650        H655   1.084   1_556  S
C651        C652   1.412       .  A
C652        N653   1.429       .  S
N653        H657   1.046       .  S
N653        H658   1.046       .  S
N656        H659   1.046       .  S
N656        H660   1.042   1_556  S
C661        C662   1.404       .  A
C661        C666   1.394       .  A
C661        H668   1.084       .  S
C662        C663   1.418       .  A
C663        C664   1.408       .  A
C663        N670   1.432   1_556  S
C664        C665   1.407       .  A
C664        H669   1.084   1_556  S
C665        C666   1.416       .  A
C666        N667   1.433       .  S
N667        H671   1.042       .  S
N667        H672   1.045       .  S
N670        H673   1.043       .  S
N670        H674   1.045       .  S
C675        C676   1.406   1_554  A
C675        C680   1.417       .  A
C675        H682   1.083       .  S
C676        C677   1.414       .  A
C677        C678   1.393       .  A
C677        N684   1.440       .  S
C678        C679   1.406       .  A
C678        H683   1.078       .  S
C679        C680   1.417   1_556  A
C680        N681   1.436       .  S
N681        H685   1.045       .  S
N681        H686   1.045       .  S
N684        H687   1.043       .  S
N684        H688   1.046       .  S
C689        C690   1.400       .  A
C689        C694   1.406       .  A
C689        H696   1.084       .  S
C690        C691   1.419       .  A
C691        C692   1.410       .  A
C691        N698   1.429       .  S
C692        C693   1.404       .  A
C692        H697   1.083       .  S
C693        C694   1.421       .  A
C694        N695   1.438       .  S
N695        H699   1.046       .  S
N695        H700   1.046       .  S
N698        H701   1.046       .  S
N698        H702   1.045       .  S
C703        C704   1.418       .  A
C703        C708   1.413       .  A
C703        H710   1.082       .  S
C704        C705   1.420       .  A
C705        C706   1.399       .  A
C705        N712   1.432       .  S
C706        C707   1.409       .  A
C706        H711   1.077       .  S
C707        C708   1.412       .  A
C708        N709   1.437   1_455  S
N709        H713   1.045       .  S
N709        H714   1.045       .  S
N712        H715   1.045       .  S
N712        H716   1.043       .  S
C717        C718   1.406       .  A
C717        C722   1.403       .  A
C717        H724   1.061       .  S
C718        C719   1.425       .  A
C719        C720   1.411       .  A
C719        N726   1.429       .  S
C720        C721   1.401       .  A
C720        H725   1.083       .  S
C721        C722   1.413       .  A
C722        N723   1.439       .  S
N723        H727   1.046       .  S
N723        H728   1.045       .  S
N726        H729   1.046       .  S
N726        H730   1.046       .  S
C731        C732   1.406       .  A
C731        C736   1.394       .  A
C731        H738   1.084       .  S
C732        C733   1.422       .  A
C733        C734   1.413       .  A
C733        N740   1.436       .  S
C734        C735   1.409       .  A
C734        H739   1.083       .  S
C735        C736   1.416       .  A
C736        N737   1.433       .  S
N737        H741   1.042       .  S
N737        H742   1.046       .  S
N740        H743   1.042       .  S
N740        H744   1.046       .  S
C745        C746   1.402       .  A
C745        C750   1.402       .  A
C745        H752   1.084       .  S
C746        C747   1.411       .  A
C747        C748   1.398       .  A
C747        N754   1.439       .  S
C748        C749   1.408       .  A
C748        H753   1.084       .  S
C749        C750   1.418       .  A
C750        N751   1.439       .  S
N751        H755   1.046       .  S
N751        H756   1.043       .  S
N754        H757   1.043       .  S
N754        H758   1.045       .  S
C759        C760   1.407       .  A
C759        C764   1.400       .  A
C759        H766   1.084       .  S
C760        C761   1.418       .  A
C761        C762   1.404       .  A
C761        N768   1.439       .  S
C762        C763   1.404       .  A
C762        H767   1.084       .  S
C763        C764   1.405       .  A
C764        N765   1.438       .  S
N765        H769   1.046       .  S
N765        H770   1.046       .  S
N768        H771   1.042       .  S
N768        H772   1.046       .  S
C773        C774   1.408       .  A
C773        C778   1.405       .  A
C773        H780   1.084       .  S
C774        C775   1.416       .  A
C775        C776   1.399       .  A
C775        N782   1.433       .  S
C776        C777   1.404       .  A
C776        H781   1.084       .  S
C777        C778   1.415       .  A
C778        N779   1.432       .  S
N779        H783   1.043       .  S
N779        H784   1.046       .  S
N782        H785   1.046       .  S
N782        H786   1.045       .  S
C787        C788   1.407       .  A
C787        C792   1.412       .  A
C787        H794   1.083       .  S
C788        C789   1.413       .  A
C789        C790   1.396       .  A
C789        N796   1.433       .  S
C790        C791   1.407       .  A
C790        H795   1.081       .  S
C791        C792   1.416       .  A
C792        N793   1.437       .  S
N793        H797   1.046       .  S
N793        H798   1.045       .  S
N796        H799   1.046       .  S
N796        H800   1.046       .  S
C801        C802   1.408       .  A
C801        C806   1.392       .  A
C801        H808   1.084       .  S
C802        C803   1.407       .  A
C803        C804   1.396       .  A
C803        N810   1.433       .  S
C804        C805   1.406       .  A
C804        H809   1.084       .  S
C805        C806   1.406       .  A
C806        N807   1.433       .  S
N807        H811   1.044       .  S
N807        H812   1.045       .  S
N810        H813   1.044       .  S
N810        H814   1.046       .  S
C815        C816   1.394       .  A
C815        C820   1.399       .  A
C815        H822   1.084       .  S
C816        C817   1.409       .  A
C817        C818   1.397       .  A
C817        N824   1.432       .  S
C818        C819   1.399       .  A
C818        H823   1.084       .  S
C819        C820   1.415       .  A
C820        N821   1.433       .  S
N821        H825   1.046       .  S
N821        H826   1.045       .  S
N824        H827   1.046       .  S
N824        H828   1.045       .  S
C829        C830   1.405       .  A
C829        C834   1.393       .  A
C829        H836   1.084       .  S
C830        C831   1.421       .  A
C831        C832   1.405       .  A
C831        N838   1.436       .  S
C832        C833   1.401       .  A
C832        H837   1.084       .  S
C833        C834   1.402       .  A
C834        N835   1.433       .  S
N835        H839   1.046       .  S
N835        H840   1.046       .  S
N838        H841   1.043       .  S
N838        H842   1.045       .  S
C843        C844   1.402       .  A
C843        C848   1.409       .  A
C843        H850   1.084       .  S
C844        C845   1.403       .  A
C845        C846   1.403       .  A
C845        N852   1.436       .  S
C846        C847   1.410       .  A
C846        H851   1.081       .  S
C847        C848   1.416       .  A
C848        N849   1.437       .  S
N849        H853   1.046       .  S
N849        H854   1.045       .  S
N852        H855   1.045       .  S
N852        H856   1.045       .  S
C857        C858   1.404       .  A
C857        C862   1.397       .  A
C857        H864   1.084       .  S
C858        C859   1.405       .  A
C859        C860   1.398       .  A
C859        N866   1.431       .  S
C860        C861   1.403       .  A
C860        H865   1.083       .  S
C861        C862   1.403       .  A
C862        N863   1.433       .  S
N863        H867   1.045       .  S
N863        H868   1.046       .  S
N866        H869   1.045       .  S
N866        H870   1.045       .  S
C871        C872   1.398       .  A
C871        C876   1.397       .  A
C871        H878   1.084   1_455  S
C872        C873   1.404       .  A
C873        C874   1.397       .  A
C873        N880   1.432       .  S
C874        C875   1.399       .  A
C874        H879   1.084       .  S
C875        C876   1.407       .  A
C876        N877   1.434       .  S
N877        H881   1.046       .  S
N877        H882   1.045       .  S
N880        H883   1.046       .  S
N880        H884   1.046       .  S
C885        C886   1.400       .  A
C885        C890   1.394       .  A
C885        H892   1.084       .  S
C886        C887   1.410       .  A
C887        C888   1.403       .  A
C887        N894   1.438       .  S
C888        C889   1.401       .  A
C888        H893   1.084       .  S
C889        C890   1.403       .  A
C890        N891   1.433       .  S
N891        H895   1.045       .  S
N891        H896   1.046       .  S
N894        H897   1.046       .  S
N894        H898   1.046       .  S
C899        C900   1.401   1_545  A
C899        C904   1.400   1_545  A
C899        H906   1.084       .  S
C900        C901   1.406       .  A
C901        C902   1.398       .  A
C901        N908   1.439       .  S
C902        C903   1.400       .  A
C902        H907   1.085       .  S
C903        C904   1.405       .  A
C904        N905   1.438       .  S
N905        H909   1.046       .  S
N905        H910   1.045       .  S
N908        H911   1.045       .  S
N908        H912   1.046       .  S
