geometry optimzed in LAMMPS
_audit_creation_date              2020-12-01 
_audit_creation_method            'lammps2cif' 
_symmetry_space_group_name_H-M    'P1' 
_symmetry_Int_Tables_number       1 
_symmetry_cell_setting            triclinic 
loop_ 
_symmetry_equiv_pos_as_xyz 
  x,y,z 
_cell_length_a                    36.11947464 
_cell_length_b                    36.06672018687747 
_cell_length_c                    34.576444131654476 
_cell_angle_alpha                 89.86018797892518 
_cell_angle_beta                  89.9156181373258 
_cell_angle_gamma                 120.51634674770007 
loop_ 
_atom_site_label 
_atom_site_type_symbol 
_atom_site_fract_x 
_atom_site_fract_y 
_atom_site_fract_z 
_atom_site_charge 
C1          C  0.33558469  0.16777942  0.03783439     0.30300
C2          C  0.33666130  0.16614602  0.45831685     0.30300
C3          C  0.36110660  0.14822743  0.01871861    -0.05900
C4          C  0.29113163  0.14250593  0.01734051    -0.06700
C5          C  0.35618581  0.21247957  0.01656225    -0.06600
C6          C  0.35996546  0.14691834  0.47852544    -0.05900
C7          C  0.29230322  0.14271288  0.47695027    -0.06700
C8          C  0.35516374  0.21057582  0.47613377    -0.06600
C9          C  0.38040840  0.12628060  0.46529945    -0.32000
N10         N  0.39575856  0.11580006  0.49608484     0.14500
C11         C  0.38523064  0.12949236  0.02887015    -0.32000
H12         H  0.39384257  0.12525612  0.05778784     0.16500
C13         C  0.25110314  0.12557419  0.46342670    -0.31000
N14         N  0.22437777  0.11227955  0.99398242     0.13300
C15         C  0.24796051  0.12247644  0.02717381    -0.30900
C16         C  0.37291074  0.25148577  0.46142560    -0.31200
N17         N  0.38746284  0.27907143  0.99122381     0.13800
H18         H  0.37575779  0.26081353  0.43133410     0.16400
C19         C  0.37786996  0.25625294  0.02496234    -0.31200
H20         H  0.38743145  0.27078804  0.05323544     0.16400
H21         H  0.23478317  0.11716708  0.05613921     0.16400
H22         H  0.38365917  0.11906962  0.43553147     0.16500
H23         H  0.24091990  0.12362442  0.43371793     0.16400
C24         C  0.33373405  0.16905862  0.21168666     0.30300
C25         C  0.33381855  0.16576812  0.29117611     0.30300
C26         C  0.35465414  0.14463874  0.23054137    -0.05900
C27         C  0.35866856  0.21347150  0.23319564    -0.06700
C28         C  0.28912011  0.14773973  0.23222666    -0.06600
C29         C  0.35409705  0.14359431  0.27075452    -0.05900
C30         C  0.35692496  0.21083153  0.27362552    -0.06700
C31         C  0.28989625  0.14685602  0.27258369    -0.06600
C32         C  0.37521570  0.12349159  0.28369593    -0.32000
N33         N  0.38866104  0.11134633  0.25264342     0.14500
C34         C  0.37708054  0.12423013  0.21995813    -0.32000
H35         H  0.38552223  0.12005805  0.19091828     0.16500
C36         C  0.37529673  0.25162699  0.28859991    -0.31000
N37         N  0.39123062  0.27972351  0.25907863     0.13300
C38         C  0.38214980  0.25742685  0.22520168    -0.30900
C39         C  0.24873017  0.12962916  0.28620432    -0.31200
N40         N  0.22231114  0.11800779  0.25563035     0.13800
H41         H  0.23831992  0.12552934  0.31606317     0.16400
C42         C  0.24613289  0.12909007  0.22241980    -0.31200
H43         H  0.23309672  0.12332887  0.19344895     0.16400
H44         H  0.39143508  0.27237828  0.19696778     0.16400
H45         H  0.38078546  0.11834154  0.31347465     0.16500
H46         H  0.37670168  0.26056571  0.31864693     0.16400
C47         C  0.16776074  0.33597335  0.04146355     0.30300
C48         C  0.16832961  0.33635944  0.46199241     0.30300
C49         C  0.14584425  0.35783376  0.02242273    -0.05900
C50         C  0.21199147  0.36020555  0.02279287    -0.06700
C51         C  0.14636949  0.29232027  0.02246775    -0.06600
C52         C  0.14489626  0.35736564  0.48208445    -0.05900
C53         C  0.21325036  0.35911467  0.48245481    -0.06700
C54         C  0.14681151  0.29130616  0.48224452    -0.06600
C55         C  0.12249988  0.37763998  0.47167316    -0.32000
N56         N  0.11180430  0.39102216  0.00450264     0.14500
C57         C  0.12701181  0.38032605  0.03536037    -0.32000
H58         H  0.12449476  0.38872676  0.06487483     0.16500
C59         C  0.25669594  0.37878903  0.47323562    -0.31000
N60         N  0.28016355  0.39325443  0.00642097     0.13300
C61         C  0.25319403  0.38302586  0.03658991    -0.30900
C62         C  0.12746978  0.24782396  0.47321499    -0.31200
N63         N  0.11492131  0.22436605  0.00670328     0.13800
H64         H  0.12252730  0.23402310  0.44461907     0.16400
C65         C  0.12602696  0.25125924  0.03682424    -0.31200
H66         H  0.12013603  0.24155797  0.06692344     0.16400
H67         H  0.26310314  0.39105505  0.06636766     0.16400
H68         H  0.11533987  0.38308565  0.44254259     0.16500
H69         H  0.27031242  0.38158123  0.44477032     0.16400
C70         C  0.16463133  0.33620252  0.20884569     0.30300
C71         C  0.16428759  0.33348236  0.28826510     0.30300
C72         C  0.14538088  0.35995994  0.22867337    -0.05900
C73         C  0.14086135  0.29184168  0.22674426    -0.06700
C74         C  0.20873860  0.35690643  0.22773004    -0.06600
C75         C  0.14404511  0.35826493  0.26902244    -0.05900
C76         C  0.14080781  0.28922645  0.26692986    -0.06700
C77         C  0.20941125  0.35486136  0.26804339    -0.06600
C78         C  0.12412318  0.38092193  0.27996239    -0.32000
N79         N  0.11482189  0.39616382  0.24741408     0.14500
C80         C  0.12894890  0.38474796  0.21628646    -0.32000
H81         H  0.12697110  0.39379566  0.18685777     0.16500
C82         C  0.12184743  0.24543423  0.27470122    -0.31000
N83         N  0.10933353  0.22328405  0.24073360     0.13300
C84         C  0.12117963  0.25134868  0.21130780    -0.30900
C85         C  0.25270738  0.37423123  0.27760646    -0.31200
N86         N  0.27668710  0.38889890  0.24454779     0.13800
H87         H  0.26595848  0.37817487  0.30635610     0.16400
C88         C  0.25022757  0.37963590  0.21427162    -0.31200
H89         H  0.26080712  0.38899248  0.18470605     0.16400
H90         H  0.11666173  0.24285291  0.18096513     0.16400
H91         H  0.11625691  0.38528466  0.30917739     0.16500
H92         H  0.11882322  0.23060697  0.30261395     0.16400
O93         O  0.45154448  0.02281308  0.02880962    -0.88100
C94         C  0.43228204  0.43859991  0.44014845     0.87900
Mg95       Mg  0.50150522  0.08984938  0.02709288     1.58100
O96         O  0.47921730  0.42612410  0.02557637    -0.87800
O97         O  0.42548780  0.46500013  0.06447831    -0.75100
C98         C  0.17870270  0.09086636  0.49102228     0.93000
O99         O  0.46788369  0.04507425  0.43675601    -0.75000
O100        O  0.16104736  0.11226916  0.48125738    -0.82500
Mg101      Mg  0.41214511  0.50010975  0.47685511     1.58000
C102        C  0.08961767  0.41422276  0.00681110     0.92900
O103        O  0.34795729  0.45477146  0.00620293    -0.80700
H104        H  0.47607855  0.41139183  0.08170662    -0.06100
C105        C  0.06617310  0.99788201  0.43959504     0.87900
O106        O  0.04657994  0.07893823  0.06571367    -0.75200
O107        O  0.42817335  0.45013326  0.47257847    -0.88000
O108        O  0.05018892  0.39523925  0.99741247    -0.80800
C109        C  0.41190484  0.32484181  0.48736120     0.93000
C110        C  0.32582525  0.41408979  0.00977998     0.92900
Mg111      Mg  0.09157978  0.00386343  0.02432506     1.58000
O112        O  0.15709441  0.05096273  0.49896601    -0.80700
O113        O  0.03501179  0.45782695  0.06312076    -0.75000
O114        O  0.39321780  0.34614547  0.49327147    -0.80800
O115        O  0.39452867  0.05169735  0.48443414    -0.82500
O116        O  0.11018384  0.15803773  0.00122392    -0.80800
C117        C  0.99572509  0.43045890  0.05763349     0.87300
O118        O  0.07575613  0.05379410  0.02694199    -0.88000
O119        O  0.05345643  0.48061426  0.47143831    -0.88100
O120        O  0.07952666  0.03752867  0.43483532    -0.75100
Mg121      Mg  0.41278028  0.40966021  0.02332697     1.58000
O122        O  0.45174672  0.34298759  0.47926946    -0.82500
H123        H  0.44164106  0.02380313  0.08562379    -0.06200
O124        O  0.02453122  0.07626417  0.47342794    -0.87800
H125        H  0.02685676  0.09037415  0.41719126    -0.06100
H126        H  0.09196304  0.06506716  0.08274185    -0.06200
C127        C  0.50748093  0.07183977  0.44159909     0.87300
C128        C  0.43954159  0.50495330  0.06056765     0.87900
C129        C  0.07275709  0.06615966  0.05929660     0.87900
H130        H  0.06504344  0.47869372  0.41515151    -0.06200
O131        O  0.45833687  0.42546883  0.43419197    -0.75300
Mg132      Mg  0.09103604  0.09314598  0.47476929     1.58000
H133        H  0.41391226  0.44038321  0.41629569    -0.06200
C134        C  0.41643182  0.09112570  0.49387531     0.92900
O135        O  0.05237968  0.15994187  0.02060028    -0.82500
C136        C  0.09149305  0.17864132  0.01006458     0.93000
O137        O  0.34306209  0.39146808  0.01597151    -0.82500
Mg138      Mg  0.00330865  0.41352883  0.47254292     1.58200
O139        O  0.45603041  0.10928031  0.50203906    -0.80800
O140        O  0.11017498  0.45328059  0.01745200    -0.82500
O141        O  0.47818403  0.05210516  0.22004879    -0.88100
C142        C  0.06428898  0.07373000  0.30710390     0.87900
Mg143      Mg  0.41144476  0.00225830  0.22311743     1.58100
O144        O  0.07408228  0.02397067  0.22232029    -0.87800
O145        O  0.03438867  0.07736203  0.18267951    -0.75100
C146        C  0.41235316  0.32542309  0.26324304     0.93000
O147        O  0.45794290  0.03757451  0.31235916    -0.75000
O148        O  0.38999424  0.34283637  0.27017614    -0.82500
Mg149      Mg  0.00240610  0.09259244  0.27117591     1.58000
C150        C  0.09002913  0.41676185  0.24504471     0.92900
O151        O  0.04735271  0.15608899  0.24108346    -0.80700
H152        H  0.08606250  0.02440712  0.16579321    -0.06100
C153        C  0.50494350  0.43992318  0.31147930     0.87900
O154        O  0.42218230  0.45590031  0.18581658    -0.75200
O155        O  0.05200887  0.07647427  0.27460319    -0.88000
O156        O  0.10856956  0.45698413  0.25091173    -0.80800
C157        C  0.17663191  0.09350390  0.25849416     0.93000
C158        C  0.08782342  0.17774880  0.23635576     0.92900
Mg159      Mg  0.49788375  0.41108358  0.22873281     1.58000
O160        O  0.45295991  0.34742566  0.25919720    -0.80700
O161        O  0.04167252  0.46598852  0.18728445    -0.75000
O162        O  0.15535533  0.11139424  0.24956118    -0.80800
O163        O  0.45184216  0.11108334  0.26400292    -0.82500
O164        O  0.34303807  0.39363748  0.25088614    -0.80800
C165        C  0.06848979  0.50582156  0.19089988     0.87300
O166        O  0.44728752  0.42653756  0.22470618    -0.88000
O167        O  0.02188881  0.45186004  0.27940238    -0.88100
O168        O  0.46517638  0.42588863  0.31624306    -0.75100
Mg169      Mg  0.09066120  0.09047696  0.22254076     1.58000
O170        O  0.15863633  0.05428267  0.26887154    -0.82500
H171        H  0.47506295  0.06147637  0.16340255    -0.06200
O172        O  0.42548839  0.47989081  0.27701954    -0.87800
H173        H  0.41289222  0.47917883  0.33342182    -0.06100
H174        H  0.43600987  0.41039248  0.16889304    -0.06200
C175        C  0.43086520  0.99784813  0.30849370     0.87300
C176        C  0.99477225  0.06371202  0.18781115     0.87900
C177        C  0.43500816  0.42967920  0.19231152     0.87900
H178        H  0.02439029  0.44196990  0.33603674    -0.06200
O179        O  0.07728204  0.04774776  0.31394366    -0.75300
Mg180      Mg  0.40861911  0.41303290  0.27671687     1.58000
H181        H  0.06295193  0.09302858  0.33034029    -0.06200
C182        C  0.41243139  0.08973496  0.25481116     0.92900
O183        O  0.34130596  0.45139550  0.23054508    -0.82500
C184        C  0.32248925  0.41234733  0.24160143     0.93000
O185        O  0.10970868  0.16014321  0.22874179    -0.82500
Mg186      Mg  0.08876634  0.50240639  0.27619463     1.58200
O187        O  0.39342297  0.04980680  0.24713929    -0.80800
O188        O  0.05021731  0.39428725  0.23710254    -0.82500
C189        C  0.19556049  0.37052635  0.35316259    -0.26100
C190        C  0.16389822  0.33402739  0.33333232    -0.14100
C191        C  0.12895324  0.30338581  0.35615328     0.36500
C192        C  0.13177209  0.30445195  0.39701066    -0.25500
C193        C  0.16707765  0.33767422  0.41692528    -0.14700
C194        C  0.19612995  0.37388932  0.39391247     0.37600
N195        N  0.22305573  0.41606378  0.40977952    -0.89000
H196        H  0.21856916  0.39838256  0.33673131     0.18700
H197        H  0.10455761  0.28019354  0.41321682     0.18700
N198        N  0.08890544  0.27343630  0.33857466    -0.88000
H199        H  0.25518016  0.42463987  0.40636680     0.36100
H200        H  0.21657959  0.41796787  0.43882688     0.41200
H201        H  0.06572147  0.28046219  0.34828045     0.40800
H202        H  0.07983592  0.24260170  0.34865021     0.35700
C203        C  0.19326780  0.32582416  0.14656188    -0.26100
C204        C  0.16353906  0.33380899  0.16539119    -0.14100
C205        C  0.12709798  0.32623868  0.14410915     0.36500
C206        C  0.12908863  0.32652540  0.10398772    -0.25500
C207        C  0.16578599  0.33181284  0.08488157    -0.14700
C208        C  0.19381662  0.32300911  0.10660997     0.37600
N209        N  0.21913218  0.30630223  0.09038079    -0.89000
H210        H  0.21441033  0.31872274  0.16299416     0.18700
H211        H  0.10088638  0.32044213  0.08793631     0.18700
N212        N  0.08700461  0.31416837  0.16266833    -0.88000
H213        H  0.25165205  0.32827899  0.09524319     0.36100
H214        H  0.21418606  0.30007889  0.06089655     0.41200
H215        H  0.06461513  0.28284305  0.15407915     0.40800
H216        H  0.07616723  0.33428674  0.15238724     0.35700
C217        C  0.30785623  0.12714596  0.39569768    -0.26100
C218        C  0.33962515  0.16379704  0.41493578    -0.14100
C219        C  0.37698968  0.19236301  0.39339736     0.36500
C220        C  0.37404753  0.19211413  0.35339825    -0.25500
C221        C  0.33606731  0.16250227  0.33448598    -0.14700
C222        C  0.30652200  0.12544710  0.35545391     0.37600
N223        N  0.27703493  0.08594002  0.33628531    -0.89000
H224        H  0.28505872  0.09904978  0.41192932     0.18700
H225        H  0.40237708  0.21421095  0.33699956     0.18700
N226        N  0.41891450  0.21889443  0.41004189    -0.90200
H227        H  0.25745189  0.06221485  0.35631963     0.36100
H228        H  0.29503078  0.07467929  0.32225705     0.41200
H229        H  0.41963107  0.21455891  0.43972576     0.40800
H230        H  0.42906137  0.25119768  0.40461029     0.35700
C231        C  0.32569848  0.13213182  0.14602336    -0.26100
C232        C  0.33141277  0.16844535  0.16656110    -0.14100
C233        C  0.32838420  0.19997849  0.14435412     0.36500
C234        C  0.33084294  0.19978026  0.10333977    -0.25500
C235        C  0.33273325  0.16691987  0.08292148    -0.14700
C236        C  0.32500172  0.13052539  0.10510428     0.37600
N237        N  0.31374663  0.09074948  0.08650384    -0.89000
H238        H  0.31998256  0.10373851  0.16173958     0.18700
H239        H  0.32829415  0.22409505  0.08734636     0.18700
N240        N  0.31993171  0.23044886  0.16302606    -0.88000
H241        H  0.33442645  0.08053474  0.09651305     0.36100
H242        H  0.28266704  0.06779926  0.09535008     0.41200
H243        H  0.28966433  0.21321556  0.17608839     0.40800
H244        H  0.31819290  0.25110355  0.14280228     0.35700
C245        C  0.33558463  0.16777937  0.53783437     0.30300
C246        C  0.33666129  0.16614602  0.95831687     0.30300
C247        C  0.36110661  0.14822744  0.51871860    -0.05900
C248        C  0.29113158  0.14250583  0.51734050    -0.06700
C249        C  0.35618572  0.21247952  0.51656223    -0.06600
C250        C  0.35996540  0.14691828  0.97852546    -0.05900
C251        C  0.29230325  0.14271296  0.97695032    -0.06700
C252        C  0.35516379  0.21057585  0.97613377    -0.06600
C253        C  0.38040844  0.12628064  0.96529944    -0.32000
N254        N  0.39575871  0.11580022  0.99608481     0.14500
C255        C  0.38523053  0.12949225  0.52887020    -0.32000
H256        H  0.39384238  0.12525602  0.55778788     0.16500
C257        C  0.25110319  0.12557414  0.96342677    -0.31000
N258        N  0.22437775  0.11227957  0.49398238     0.13300
C259        C  0.24796043  0.12247640  0.52717382    -0.30900
C260        C  0.37291070  0.25148573  0.96142552    -0.31200
N261        N  0.38746287  0.27907144  0.49122385     0.13800
H262        H  0.37575771  0.26081340  0.93133402     0.16400
C263        C  0.37786989  0.25625286  0.52496231    -0.31200
H264        H  0.38743134  0.27078787  0.55323546     0.16400
H265        H  0.23478301  0.11716703  0.55613918     0.16400
H266        H  0.38365924  0.11906968  0.93553147     0.16500
H267        H  0.24091997  0.12362430  0.93371796     0.16400
C268        C  0.33373403  0.16905864  0.71168669     0.30300
C269        C  0.33381854  0.16576818  0.79117615     0.30300
C270        C  0.35465415  0.14463877  0.73054141    -0.05900
C271        C  0.35866853  0.21347153  0.73319569    -0.06700
C272        C  0.28912007  0.14773973  0.73222668    -0.06600
C273        C  0.35409705  0.14359438  0.77075456    -0.05900
C274        C  0.35692493  0.21083156  0.77362554    -0.06700
C275        C  0.28989624  0.14685608  0.77258372    -0.06600
C276        C  0.37521567  0.12349165  0.78369596    -0.32000
N277        N  0.38866099  0.11134633  0.75264348     0.14500
C278        C  0.37708055  0.12423013  0.71995817    -0.32000
H279        H  0.38552231  0.12005807  0.69091837     0.16500
C280        C  0.37529674  0.25162700  0.78859991    -0.31000
N281        N  0.39123066  0.27972357  0.75907867     0.13300
C282        C  0.38214979  0.25742688  0.72520174    -0.30900
C283        C  0.24873017  0.12962921  0.78620433    -0.31200
N284        N  0.22231111  0.11800782  0.75563038     0.13800
H285        H  0.23831993  0.12552934  0.81606321     0.16400
C286        C  0.24613284  0.12909002  0.72241979    -0.31200
H287        H  0.23309667  0.12332872  0.69344897     0.16400
H288        H  0.39143507  0.27237828  0.69696783     0.16400
H289        H  0.38078547  0.11834165  0.81347473     0.16500
H290        H  0.37670172  0.26056569  0.81864698     0.16400
C291        C  0.16776077  0.33597334  0.54146358     0.30300
C292        C  0.16832957  0.33635942  0.96199239     0.30300
C293        C  0.14584427  0.35783375  0.52242278    -0.05900
C294        C  0.21199153  0.36020557  0.52279289    -0.06700
C295        C  0.14636951  0.29232028  0.52246776    -0.06600
C296        C  0.14489621  0.35736560  0.98208442    -0.05900
C297        C  0.21325031  0.35911464  0.98245482    -0.06700
C298        C  0.14681149  0.29130612  0.98224449    -0.06600
C299        C  0.12249973  0.37763988  0.97167318    -0.32000
N300        N  0.11180435  0.39102218  0.50450266     0.14500
C301        C  0.12701176  0.38032599  0.53536046    -0.32000
H302        H  0.12449458  0.38872658  0.56487493     0.16500
C303        C  0.25669589  0.37878895  0.97323565    -0.31000
N304        N  0.28016360  0.39325450  0.50642094     0.13300
C305        C  0.25319414  0.38302595  0.53658991    -0.30900
C306        C  0.12746973  0.24782390  0.97321498    -0.31200
N307        N  0.11492133  0.22436605  0.50670324     0.13800
H308        H  0.12252721  0.23402300  0.94461910     0.16400
C309        C  0.12602693  0.25125920  0.53682419    -0.31200
H310        H  0.12013595  0.24155785  0.56692337     0.16400
H311        H  0.26310334  0.39105523  0.56636760     0.16400
H312        H  0.11533959  0.38308547  0.94254262     0.16500
H313        H  0.27031229  0.38158107  0.94477035     0.16400
C314        C  0.16463128  0.33620250  0.70884571     0.30300
C315        C  0.16428758  0.33348234  0.78826509     0.30300
C316        C  0.14538084  0.35995993  0.72867339    -0.05900
C317        C  0.14086130  0.29184163  0.72674424    -0.06700
C318        C  0.20873858  0.35690649  0.72773002    -0.06600
C319        C  0.14404511  0.35826494  0.76902249    -0.05900
C320        C  0.14080777  0.28922639  0.76692986    -0.06700
C321        C  0.20941122  0.35486135  0.76804338    -0.06600
C322        C  0.12412313  0.38092191  0.77996253    -0.32000
N323        N  0.11482181  0.39616373  0.74741415     0.14500
C324        C  0.12894880  0.38474788  0.71628647    -0.32000
H325        H  0.12697096  0.39379554  0.68685779     0.16500
C326        C  0.12184742  0.24543417  0.77470124    -0.31000
N327        N  0.10933356  0.22328399  0.74073359     0.13300
C328        C  0.12117960  0.25134860  0.71130773    -0.30900
C329        C  0.25270734  0.37423111  0.77760645    -0.31200
N330        N  0.27668706  0.38889875  0.74454777     0.13800
H331        H  0.26595842  0.37817468  0.80635610     0.16400
C332        C  0.25022756  0.37963595  0.71427156    -0.31200
H333        H  0.26080709  0.38899260  0.68470602     0.16400
H334        H  0.11666164  0.24285281  0.68096510     0.16400
H335        H  0.11625692  0.38528464  0.80917749     0.16500
H336        H  0.11882317  0.23060689  0.80261397     0.16400
O337        O  0.45154446  0.02281314  0.52880963    -0.88100
C338        C  0.43228197  0.43859983  0.94014840     0.87900
Mg339      Mg  0.50150519  0.08984942  0.52709288     1.58100
O340        O  0.47921730  0.42612408  0.52557636    -0.87800
O341        O  0.42548780  0.46500014  0.56447837    -0.75100
C342        C  0.17870274  0.09086642  0.99102234     0.93000
O343        O  0.46788370  0.04507433  0.93675597    -0.75000
O344        O  0.16104744  0.11226927  0.98125743    -0.82500
Mg345      Mg  0.41214508  0.50010975  0.97685516     1.58000
C346        C  0.08961772  0.41422274  0.50681110     0.92900
O347        O  0.34795732  0.45477153  0.50620280    -0.80700
H348        H  0.47607867  0.41139168  0.58170661    -0.06100
C349        C  0.06617311  0.99788211  0.93959500     0.87900
O350        O  0.04657981  0.07893816  0.56571370    -0.75200
O351        O  0.42817321  0.45013321  0.97257843    -0.88000
O352        O  0.05018901  0.39523926  0.49741233    -0.80800
C353        C  0.41190478  0.32484177  0.98736114     0.93000
C354        C  0.32582532  0.41408987  0.50977988     0.92900
Mg355      Mg  0.09157981  0.00386344  0.52432514     1.58000
O356        O  0.15709443  0.05096280  0.99896608    -0.80700
O357        O  0.03501176  0.45782691  0.56312073    -0.75000
O358        O  0.39321770  0.34614542  0.99327131    -0.80800
O359        O  0.39452863  0.05169738  0.98443421    -0.82500
O360        O  0.11018372  0.15803765  0.50122379    -0.80800
C361        C  0.99572508  0.43045884  0.55763350     0.87300
O362        O  0.07575619  0.05379413  0.52694207    -0.88000
O363        O  0.05345641  0.48061424  0.97143825    -0.88100
O364        O  0.07952670  0.03752879  0.93483533    -0.75100
Mg365      Mg  0.41278035  0.40966028  0.52332701     1.58000
O366        O  0.45174671  0.34298757  0.97926958    -0.82500
H367        H  0.44164100  0.02380314  0.58562384    -0.06200
O368        O  0.02453117  0.07626404  0.97342796    -0.87800
H369        H  0.02685681  0.09037436  0.91719137    -0.06100
H370        H  0.09196301  0.06506724  0.58274195    -0.06200
C371        C  0.50748095  0.07183983  0.94159909     0.87300
C372        C  0.43954152  0.50495325  0.56056771     0.87900
C373        C  0.07275705  0.06615968  0.55929666     0.87900
H374        H  0.06504345  0.47869384  0.91515142    -0.06200
O375        O  0.45833677  0.42546870  0.93419207    -0.75300
Mg376      Mg  0.09103607  0.09314606  0.97476930     1.58000
H377        H  0.41391235  0.44038317  0.91629556    -0.06200
C378        C  0.41643188  0.09112574  0.99387532     0.92900
O379        O  0.05237969  0.15994190  0.52060038    -0.82500
C380        C  0.09149301  0.17864130  0.51006452     0.93000
O381        O  0.34306221  0.39146820  0.51597144    -0.82500
Mg382      Mg  0.00330862  0.41352877  0.97254297     1.58200
O383        O  0.45603044  0.10928026  0.00203913    -0.80800
O384        O  0.11017498  0.45328053  0.51745213    -0.82500
O385        O  0.47818401  0.05210523  0.72004872    -0.88100
C386        C  0.06428886  0.07372991  0.80710390     0.87900
Mg387      Mg  0.41144477  0.00225835  0.72311745     1.58100
O388        O  0.07408231  0.02397072  0.72232036    -0.87800
O389        O  0.03438878  0.07736190  0.68267943    -0.75100
C390        C  0.41235323  0.32542316  0.76324312     0.93000
O391        O  0.45794305  0.03757453  0.81235911    -0.75000
O392        O  0.38999433  0.34283647  0.77017626    -0.82500
Mg393      Mg  0.00240607  0.09259242  0.77117588     1.58000
C394        C  0.09002908  0.41676178  0.74504478     0.92900
O395        O  0.04735269  0.15608895  0.74108342    -0.80700
H396        H  0.08606241  0.02440722  0.66579327    -0.06100
C397        C  0.50494355  0.43992321  0.81147923     0.87900
O398        O  0.42218229  0.45590032  0.68581668    -0.75200
O399        O  0.05200872  0.07647406  0.77460316    -0.88000
O400        O  0.10856953  0.45698408  0.75091178    -0.80800
C401        C  0.17663189  0.09350390  0.75849423     0.93000
C402        C  0.08782341  0.17774874  0.73635574     0.92900
Mg403      Mg  0.49788373  0.41108358  0.72873286     1.58000
O404        O  0.45295998  0.34742571  0.75919729    -0.80700
O405        O  0.04167252  0.46598848  0.68728451    -0.75000
O406        O  0.15535529  0.11139418  0.74956109    -0.80800
O407        O  0.45184212  0.11108336  0.76400310    -0.82500
O408        O  0.34303806  0.39363744  0.75088633    -0.80800
C409        C  0.06848981  0.50582151  0.69090002     0.87300
O410        O  0.44728752  0.42653761  0.72470634    -0.88000
O411        O  0.02188884  0.45186005  0.77940233    -0.88100
O412        O  0.46517647  0.42588876  0.81624301    -0.75100
Mg413      Mg  0.09066119  0.09047691  0.72254075     1.58000
O414        O  0.15863634  0.05428270  0.76887169    -0.82500
H415        H  0.47506296  0.06147647  0.66340247    -0.06200
O416        O  0.42548836  0.47989087  0.77701961    -0.87800
H417        H  0.41289230  0.47917901  0.83342191    -0.06100
H418        H  0.43600967  0.41039235  0.66889324    -0.06200
C419        C  0.43086526  0.99784815  0.80849375     0.87300
C420        C  0.99477237  0.06371204  0.68781104     0.87900
C421        C  0.43500810  0.42967920  0.69231169     0.87900
H422        H  0.02439030  0.44197002  0.83603670    -0.06200
O423        O  0.07728200  0.04774775  0.81394370    -0.75300
Mg424      Mg  0.40861914  0.41303297  0.77671699     1.58000
H425        H  0.06295172  0.09302852  0.83034020    -0.06200
C426        C  0.41243137  0.08973499  0.75481125     0.92900
O427        O  0.34130589  0.45139542  0.73054514    -0.82500
C428        C  0.32248921  0.41234724  0.74160149     0.93000
O429        O  0.10970863  0.16014311  0.72874173    -0.82500
Mg430      Mg  0.08876630  0.50240639  0.77619464     1.58200
O431        O  0.39342303  0.04980690  0.74713917    -0.80800
O432        O  0.05021726  0.39428722  0.73710263    -0.82500
C433        C  0.19556052  0.37052638  0.85316261    -0.26100
C434        C  0.16389824  0.33402743  0.83333231    -0.14100
C435        C  0.12895322  0.30338587  0.85615325     0.36500
C436        C  0.13177202  0.30445194  0.89701065    -0.25500
C437        C  0.16707763  0.33767422  0.91692527    -0.14700
C438        C  0.19612995  0.37388936  0.89391249     0.37600
N439        N  0.22305573  0.41606383  0.90977957    -0.89000
H440        H  0.21856926  0.39838261  0.83673134     0.18700
H441        H  0.10455759  0.28019353  0.91321678     0.18700
N442        N  0.08890546  0.27343640  0.83857455    -0.88000
H443        H  0.25518017  0.42463998  0.90636683     0.36100
H444        H  0.21657965  0.41796787  0.93882696     0.41200
H445        H  0.06572147  0.28046229  0.84828031     0.40800
H446        H  0.07983592  0.24260179  0.84865008     0.35700
C447        C  0.19326779  0.32582426  0.64656194    -0.26100
C448        C  0.16353903  0.33380906  0.66539123    -0.14100
C449        C  0.12709798  0.32623877  0.64410917     0.36500
C450        C  0.12908864  0.32652541  0.60398776    -0.25500
C451        C  0.16578600  0.33181284  0.58488162    -0.14700
C452        C  0.19381663  0.32300917  0.60661005     0.37600
N453        N  0.21913222  0.30630231  0.59038093    -0.89000
H454        H  0.21441031  0.31872285  0.66299428     0.18700
H455        H  0.10088636  0.32044209  0.58793637     0.18700
N456        N  0.08700458  0.31416844  0.66266830    -0.88000
H457        H  0.25165210  0.32827916  0.59524324     0.36100
H458        H  0.21418602  0.30007890  0.56089671     0.41200
H459        H  0.06461515  0.28284309  0.65407912     0.40800
H460        H  0.07616713  0.33428673  0.65238708     0.35700
C461        C  0.30785633  0.12714604  0.89569764    -0.26100
C462        C  0.33962516  0.16379711  0.91493580    -0.14100
C463        C  0.37698963  0.19236304  0.89339736     0.36500
C464        C  0.37404747  0.19211417  0.85339828    -0.25500
C465        C  0.33606728  0.16250232  0.83448599    -0.14700
C466        C  0.30652205  0.12544717  0.85545391     0.37600
N467        N  0.27703506  0.08594004  0.83628533    -0.89000
H468        H  0.28505886  0.09904978  0.91192928     0.18700
H469        H  0.40237707  0.21421096  0.83699960     0.18700
N470        N  0.41891449  0.21889433  0.91004186    -0.90200
H471        H  0.25745206  0.06221481  0.85631962     0.36100
H472        H  0.29503104  0.07467940  0.82225716     0.41200
H473        H  0.41963101  0.21455879  0.93972572     0.40800
H474        H  0.42906146  0.25119763  0.90461033     0.35700
C475        C  0.32569844  0.13213173  0.64602342    -0.26100
C476        C  0.33141272  0.16844530  0.66656113    -0.14100
C477        C  0.32838421  0.19997850  0.64435416     0.36500
C478        C  0.33084293  0.19978028  0.60333980    -0.25500
C479        C  0.33273318  0.16691985  0.58292150    -0.14700
C480        C  0.32500166  0.13052532  0.60510429     0.37600
N481        N  0.31374657  0.09074944  0.58650383    -0.89000
H482        H  0.31998258  0.10373849  0.66173964     0.18700
H483        H  0.32829418  0.22409509  0.58734642     0.18700
N484        N  0.31993178  0.23044890  0.66302615    -0.88000
H485        H  0.33442645  0.08053474  0.59651295     0.36100
H486        H  0.28266704  0.06779917  0.59535016     0.41200
H487        H  0.28966441  0.21321569  0.67608847     0.40800
H488        H  0.31819303  0.25110362  0.64280238     0.35700
C489        C  0.33558466  0.66777936  0.03783439     0.30300
C490        C  0.33666129  0.66614600  0.45831686     0.30300
C491        C  0.36110659  0.64822739  0.01871861    -0.05900
C492        C  0.29113162  0.64250583  0.01734051    -0.06700
C493        C  0.35618576  0.71247953  0.01656225    -0.06600
C494        C  0.35996543  0.64691830  0.47852543    -0.05900
C495        C  0.29230325  0.64271288  0.47695029    -0.06700
C496        C  0.35516375  0.71057581  0.47613377    -0.06600
C497        C  0.38040848  0.62628066  0.46529946    -0.32000
N498        N  0.39575875  0.61580021  0.49608482     0.14500
C499        C  0.38523057  0.62949227  0.02887014    -0.32000
H500        H  0.39384247  0.62525605  0.05778786     0.16500
C501        C  0.25110320  0.62557412  0.46342671    -0.31000
N502        N  0.22437780  0.61227953  0.99398243     0.13300
C503        C  0.24796048  0.62247637  0.02717383    -0.30900
C504        C  0.37291077  0.75148575  0.46142560    -0.31200
N505        N  0.38746286  0.77907142  0.99122379     0.13800
H506        H  0.37575786  0.76081351  0.43133408     0.16400
C507        C  0.37786992  0.75625291  0.02496231    -0.31200
H508        H  0.38743135  0.77078802  0.05323543     0.16400
H509        H  0.23478312  0.61716704  0.05613920     0.16400
H510        H  0.38365928  0.61906971  0.43553147     0.16500
H511        H  0.24091998  0.62362432  0.43371792     0.16400
C512        C  0.33373408  0.66905863  0.21168665     0.30300
C513        C  0.33381859  0.66576817  0.29117609     0.30300
C514        C  0.35465425  0.64463882  0.23054137    -0.05900
C515        C  0.35866852  0.71347153  0.23319563    -0.06700
C516        C  0.28912012  0.64773969  0.23222666    -0.06600
C517        C  0.35409717  0.64359441  0.27075453    -0.05900
C518        C  0.35692494  0.71083157  0.27362550    -0.06700
C519        C  0.28989628  0.64685602  0.27258367    -0.06600
C520        C  0.37521579  0.62349165  0.28369594    -0.32000
N521        N  0.38866102  0.61134631  0.25264342     0.14500
C522        C  0.37708062  0.62423018  0.21995813    -0.32000
H523        H  0.38552235  0.62005810  0.19091829     0.16500
C524        C  0.37529669  0.75162701  0.28859989    -0.31000
N525        N  0.39123059  0.77972356  0.25907863     0.13300
C526        C  0.38214969  0.75742687  0.22520168    -0.30900
C527        C  0.24873021  0.62962918  0.28620432    -0.31200
N528        N  0.22231111  0.61800781  0.25563039     0.13800
H529        H  0.23832005  0.62552938  0.31606319     0.16400
C530        C  0.24613290  0.62909005  0.22241983    -0.31200
H531        H  0.23309677  0.62332886  0.19344895     0.16400
H532        H  0.39143498  0.77237827  0.19696777     0.16400
H533        H  0.38078563  0.61834161  0.31347465     0.16500
H534        H  0.37670165  0.76056570  0.31864693     0.16400
C535        C  0.16776072  0.83597332  0.04146355     0.30300
C536        C  0.16832958  0.83635943  0.46199240     0.30300
C537        C  0.14584432  0.85783380  0.02242273    -0.05900
C538        C  0.21199148  0.86020551  0.02279288    -0.06700
C539        C  0.14636938  0.79232025  0.02246775    -0.06600
C540        C  0.14489623  0.85736565  0.48208443    -0.05900
C541        C  0.21325033  0.85911464  0.48245481    -0.06700
C542        C  0.14681148  0.79130616  0.48224450    -0.06600
C543        C  0.12249985  0.87764001  0.47167318    -0.32000
N544        N  0.11180431  0.89102213  0.00450263     0.14500
C545        C  0.12701175  0.88032600  0.03536039    -0.32000
H546        H  0.12449457  0.88872659  0.06487484     0.16500
C547        C  0.25669594  0.87878898  0.47323561    -0.31000
N548        N  0.28016358  0.89325445  0.00642096     0.13300
C549        C  0.25319407  0.88302595  0.03658990    -0.30900
C550        C  0.12746978  0.74782396  0.47321501    -0.31200
N551        N  0.11492133  0.72436602  0.00670327     0.13800
H552        H  0.12252737  0.73402307  0.44461909     0.16400
C553        C  0.12602686  0.75125920  0.03682424    -0.31200
H554        H  0.12013597  0.74155793  0.06692343     0.16400
H555        H  0.26310325  0.89105529  0.06636762     0.16400
H556        H  0.11533976  0.88308561  0.44254261     0.16500
H557        H  0.27031241  0.88158113  0.44477033     0.16400
C558        C  0.16463132  0.83620250  0.20884566     0.30300
C559        C  0.16428753  0.83348232  0.28826506     0.30300
C560        C  0.14538090  0.85995997  0.22867334    -0.05900
C561        C  0.14086127  0.79184163  0.22674421    -0.06700
C562        C  0.20873857  0.85690644  0.22773002    -0.06600
C563        C  0.14404515  0.85826495  0.26902241    -0.05900
C564        C  0.14080770  0.78922641  0.26692981    -0.06700
C565        C  0.20941119  0.85486132  0.26804337    -0.06600
C566        C  0.12412316  0.88092188  0.27996242    -0.32000
N567        N  0.11482183  0.89616374  0.24741410     0.14500
C568        C  0.12894881  0.88474786  0.21628644    -0.32000
H569        H  0.12697093  0.89379547  0.18685774     0.16500
C570        C  0.12184745  0.74543423  0.27470117    -0.31000
N571        N  0.10933360  0.72328400  0.24073358     0.13300
C572        C  0.12117967  0.75134859  0.21130776    -0.30900
C573        C  0.25270731  0.87423114  0.27760646    -0.31200
N574        N  0.27668708  0.88889878  0.24454780     0.13800
H575        H  0.26595834  0.87817469  0.30635612     0.16400
C576        C  0.25022756  0.87963594  0.21427163    -0.31200
H577        H  0.26080710  0.88899258  0.18470608     0.16400
H578        H  0.11666182  0.74285275  0.18096511     0.16400
H579        H  0.11625688  0.88528449  0.30917743     0.16500
H580        H  0.11882329  0.73060699  0.30261393     0.16400
O581        O  0.45154457  0.52281314  0.02880958    -0.88100
C582        C  0.43228194  0.93859993  0.44014841     0.87900
Mg583      Mg  0.50150524  0.58984941  0.02709288     1.58100
O584        O  0.47921735  0.92612410  0.02557636    -0.87800
O585        O  0.42548772  0.96500005  0.06447832    -0.75100
C586        C  0.17870276  0.59086640  0.49102229     0.93000
O587        O  0.46788374  0.54507427  0.43675595    -0.75000
O588        O  0.16104746  0.61226922  0.48125739    -0.82500
Mg589      Mg  0.41214503  0.00010973  0.47685512     1.58000
C590        C  0.08961765  0.91422269  0.00681111     0.92900
O591        O  0.34795728  0.95477152  0.00620295    -0.80700
H592        H  0.47607860  0.91139156  0.08170654    -0.06100
C593        C  0.06617311  0.49788209  0.43959505     0.87900
O594        O  0.04657990  0.57893811  0.06571371    -0.75200
O595        O  0.42817319  0.95013321  0.47257843    -0.88000
O596        O  0.05018890  0.89523917  0.99741252    -0.80800
C597        C  0.41190482  0.82484177  0.48736122     0.93000
C598        C  0.32582529  0.91408985  0.00977997     0.92900
Mg599      Mg  0.09157979  0.50386346  0.02432502     1.58000
O600        O  0.15709447  0.55096277  0.49896602    -0.80700
O601        O  0.03501175  0.95782697  0.06312080    -0.75000
O602        O  0.39321772  0.84614539  0.49327153    -0.80800
O603        O  0.39452864  0.55169736  0.48443412    -0.82500
O604        O  0.11018392  0.65803771  0.00122395    -0.80800
C605        C  0.99572511  0.93045889  0.05763346     0.87300
O606        O  0.07575624  0.55379419  0.02694200    -0.88000
O607        O  0.05345646  0.98061422  0.47143830    -0.88100
O608        O  0.07952665  0.53752872  0.43483530    -0.75100
Mg609      Mg  0.41278034  0.90966026  0.02332696     1.58000
O610        O  0.45174668  0.84298760  0.47926944    -0.82500
H611        H  0.44164101  0.52380324  0.08562371    -0.06200
O612        O  0.02453124  0.57626409  0.47342798    -0.87800
H613        H  0.02685681  0.59037423  0.41719133    -0.06100
H614        H  0.09196314  0.56506713  0.08274183    -0.06200
C615        C  0.50748097  0.57183978  0.44159911     0.87300
C616        C  0.43954152  0.00495322  0.06056769     0.87900
C617        C  0.07275718  0.56615967  0.05929662     0.87900
H618        H  0.06504331  0.97869360  0.41515150    -0.06200
O619        O  0.45833685  0.92546891  0.43419197    -0.75300
Mg620      Mg  0.09103609  0.59314603  0.47476927     1.58000
H621        H  0.41391227  0.94038333  0.41629564    -0.06200
C622        C  0.41643187  0.59112569  0.49387530     0.92900
O623        O  0.05237974  0.65994181  0.02060030    -0.82500
C624        C  0.09149311  0.67864129  0.01006459     0.93000
O625        O  0.34306220  0.89146820  0.01597149    -0.82500
Mg626      Mg  0.00330864  0.91352884  0.47254293     1.58200
O627        O  0.45603045  0.60928019  0.50203908    -0.80800
O628        O  0.11017495  0.95328053  0.01745201    -0.82500
O629        O  0.47818396  0.55210524  0.22004878    -0.88100
C630        C  0.06428883  0.57372985  0.30710389     0.87900
Mg631      Mg  0.41144475  0.50225834  0.22311743     1.58100
O632        O  0.07408240  0.52397070  0.22232029    -0.87800
O633        O  0.03438876  0.57736192  0.18267950    -0.75100
C634        C  0.41235325  0.82542315  0.26324304     0.93000
O635        O  0.45794290  0.53757449  0.31235914    -0.75000
O636        O  0.38999442  0.84283652  0.27017615    -0.82500
Mg637      Mg  0.00240611  0.59259240  0.27117589     1.58000
C638        C  0.09002911  0.91676179  0.24504474     0.92900
O639        O  0.04735276  0.65608894  0.24108346    -0.80700
H640        H  0.08606221  0.52440709  0.16579310    -0.06100
C641        C  0.50494354  0.93992322  0.31147929     0.87900
O642        O  0.42218227  0.95590027  0.18581662    -0.75200
O643        O  0.05200880  0.57647412  0.27460314    -0.88000
O644        O  0.10856956  0.95698409  0.25091172    -0.80800
C645        C  0.17663189  0.59350391  0.25849420     0.93000
C646        C  0.08782346  0.67774874  0.23635578     0.92900
Mg647      Mg  0.49788377  0.91108359  0.22873279     1.58000
O648        O  0.45296001  0.84742565  0.25919719    -0.80700
O649        O  0.04167262  0.96598851  0.18728441    -0.75000
O650        O  0.15535531  0.61139425  0.24956120    -0.80800
O651        O  0.45184217  0.61108341  0.26400295    -0.82500
O652        O  0.34303810  0.89363738  0.25088619    -0.80800
C653        C  0.06848987  0.00582156  0.19089990     0.87300
O654        O  0.44728763  0.92653763  0.22470620    -0.88000
O655        O  0.02188878  0.95186006  0.27940237    -0.88100
O656        O  0.46517646  0.92588870  0.31624311    -0.75100
Mg657      Mg  0.09066125  0.59047692  0.22254075     1.58000
O658        O  0.15863631  0.55428268  0.26887158    -0.82500
H659        H  0.47506305  0.56147653  0.16340250    -0.06200
O660        O  0.42548839  0.97989082  0.27701958    -0.87800
H661        H  0.41289234  0.97917878  0.33342186    -0.06100
H662        H  0.43600974  0.91039242  0.16889305    -0.06200
C663        C  0.43086520  0.49784814  0.30849366     0.87300
C664        C  0.99477235  0.56371203  0.18781115     0.87900
C665        C  0.43500816  0.92967922  0.19231156     0.87900
H666        H  0.02439033  0.94197007  0.33603673    -0.06200
O667        O  0.07728198  0.54774770  0.31394372    -0.75300
Mg668      Mg  0.40861923  0.91303297  0.27671687     1.58000
H669        H  0.06295157  0.59302835  0.33034025    -0.06200
C670        C  0.41243141  0.58973499  0.25481117     0.92900
O671        O  0.34130596  0.95139537  0.23054505    -0.82500
C672        C  0.32248925  0.91234721  0.24160144     0.93000
O673        O  0.10970869  0.66014312  0.22874180    -0.82500
Mg674      Mg  0.08876632  0.00240639  0.27619460     1.58200
O675        O  0.39342302  0.54980684  0.24713928    -0.80800
O676        O  0.05021729  0.89428723  0.23710255    -0.82500
C677        C  0.19556056  0.87052629  0.35316259    -0.26100
C678        C  0.16389820  0.83402737  0.33333230    -0.14100
C679        C  0.12895323  0.80338579  0.35615328     0.36500
C680        C  0.13177208  0.80445194  0.39701067    -0.25500
C681        C  0.16707766  0.83767418  0.41692528    -0.14700
C682        C  0.19613000  0.87388925  0.39391247     0.37600
N683        N  0.22305564  0.91606375  0.40977951    -0.89000
H684        H  0.21856928  0.89838250  0.33673134     0.18700
H685        H  0.10455757  0.78019361  0.41321686     0.18700
N686        N  0.08890540  0.77343634  0.33857466    -0.88000
H687        H  0.25518012  0.92463997  0.40636688     0.36100
H688        H  0.21657943  0.91796779  0.43882687     0.41200
H689        H  0.06572153  0.78046232  0.34828051     0.40800
H690        H  0.07983579  0.74260169  0.34865012     0.35700
C691        C  0.19326789  0.82582426  0.14656186    -0.26100
C692        C  0.16353912  0.83380906  0.16539117    -0.14100
C693        C  0.12709805  0.82623875  0.14410914     0.36500
C694        C  0.12908868  0.82652542  0.10398772    -0.25500
C695        C  0.16578599  0.83181281  0.08488156    -0.14700
C696        C  0.19381667  0.82300913  0.10660996     0.37600
N697        N  0.21913227  0.80630231  0.09038080    -0.89000
H698        H  0.21441045  0.81872290  0.16299415     0.18700
H699        H  0.10088644  0.82044216  0.08793632     0.18700
N700        N  0.08700468  0.81416841  0.16266832    -0.88000
H701        H  0.25165213  0.82827915  0.09524310     0.36100
H702        H  0.21418604  0.80007890  0.06089660     0.41200
H703        H  0.06461522  0.78284306  0.15407913     0.40800
H704        H  0.07616728  0.83428679  0.15238723     0.35700
C705        C  0.30785624  0.62714607  0.39569763    -0.26100
C706        C  0.33962512  0.66379709  0.41493577    -0.14100
C707        C  0.37698965  0.69236300  0.39339737     0.36500
C708        C  0.37404752  0.69211422  0.35339825    -0.25500
C709        C  0.33606728  0.66250237  0.33448597    -0.14700
C710        C  0.30652197  0.62544720  0.35545388     0.37600
N711        N  0.27703504  0.58594006  0.33628528    -0.89000
H712        H  0.28505878  0.59904980  0.41192929     0.18700
H713        H  0.40237706  0.71421100  0.33699958     0.18700
N714        N  0.41891450  0.71889424  0.41004191    -0.90200
H715        H  0.25745200  0.56221482  0.35631956     0.36100
H716        H  0.29503105  0.57467946  0.32225711     0.41200
H717        H  0.41963104  0.71455873  0.43972578     0.40800
H718        H  0.42906153  0.75119753  0.40461031     0.35700
C719        C  0.32569842  0.63213170  0.14602340    -0.26100
C720        C  0.33141276  0.66844529  0.16656110    -0.14100
C721        C  0.32838422  0.69997845  0.14435411     0.36500
C722        C  0.33084288  0.69978014  0.10333978    -0.25500
C723        C  0.33273317  0.66691977  0.08292149    -0.14700
C724        C  0.32500167  0.63052530  0.10510430     0.37600
N725        N  0.31374653  0.59074940  0.08650384    -0.89000
H726        H  0.31998245  0.60373841  0.16173962     0.18700
H727        H  0.32829415  0.72409498  0.08734635     0.18700
N728        N  0.31993187  0.73044890  0.16302606    -0.88000
H729        H  0.33442635  0.58053463  0.09651297     0.36100
H730        H  0.28266700  0.56779925  0.09535021     0.41200
H731        H  0.28966451  0.71321567  0.17608844     0.40800
H732        H  0.31819312  0.75110363  0.14280228     0.35700
C733        C  0.33558470  0.66777939  0.53783437     0.30300
C734        C  0.33666131  0.66614597  0.95831688     0.30300
C735        C  0.36110663  0.64822744  0.51871858    -0.05900
C736        C  0.29113163  0.64250584  0.51734051    -0.06700
C737        C  0.35618578  0.71247952  0.51656223    -0.06600
C738        C  0.35996540  0.64691825  0.97852548    -0.05900
C739        C  0.29230325  0.64271288  0.97695031    -0.06700
C740        C  0.35516376  0.71057580  0.97613378    -0.06600
C741        C  0.38040837  0.62628056  0.96529948    -0.32000
N742        N  0.39575868  0.61580015  0.99608481     0.14500
C743        C  0.38523064  0.62949236  0.52887017    -0.32000
H744        H  0.39384248  0.62525615  0.55778787     0.16500
C745        C  0.25110319  0.62557411  0.96342678    -0.31000
N746        N  0.22437781  0.61227956  0.49398239     0.13300
C747        C  0.24796049  0.62247636  0.52717383    -0.30900
C748        C  0.37291076  0.75148573  0.96142552    -0.31200
N749        N  0.38746292  0.77907141  0.49122388     0.13800
H750        H  0.37575784  0.76081343  0.93133403     0.16400
C751        C  0.37787002  0.75625287  0.52496235    -0.31200
H752        H  0.38743151  0.77078788  0.55323547     0.16400
H753        H  0.23478313  0.61716698  0.55613920     0.16400
H754        H  0.38365915  0.61906962  0.93553147     0.16500
H755        H  0.24091990  0.62362428  0.93371798     0.16400
C756        C  0.33373405  0.66905864  0.71168670     0.30300
C757        C  0.33381853  0.66576816  0.79117615     0.30300
C758        C  0.35465422  0.64463880  0.73054143    -0.05900
C759        C  0.35866850  0.71347151  0.73319570    -0.06700
C760        C  0.28912007  0.64773972  0.73222668    -0.06600
C761        C  0.35409707  0.64359435  0.77075458    -0.05900
C762        C  0.35692492  0.71083155  0.77362554    -0.06700
C763        C  0.28989624  0.64685605  0.77258371    -0.06600
C764        C  0.37521563  0.62349154  0.78369597    -0.32000
N765        N  0.38866102  0.61134631  0.75264347     0.14500
C766        C  0.37708068  0.62423023  0.71995817    -0.32000
H767        H  0.38552246  0.62005820  0.69091836     0.16500
C768        C  0.37529666  0.75162698  0.78859988    -0.31000
N769        N  0.39123057  0.77972356  0.75907864     0.13300
C770        C  0.38214967  0.75742686  0.72520173    -0.30900
C771        C  0.24873016  0.62962908  0.78620433    -0.31200
N772        N  0.22231108  0.61800770  0.75563039     0.13800
H773        H  0.23831997  0.62552923  0.81606321     0.16400
C774        C  0.24613284  0.62909005  0.72241980    -0.31200
H775        H  0.23309671  0.62332893  0.69344896     0.16400
H776        H  0.39143497  0.77237823  0.69696782     0.16400
H777        H  0.38078536  0.61834144  0.81347472     0.16500
H778        H  0.37670159  0.76056568  0.81864696     0.16400
C779        C  0.16776073  0.83597335  0.54146356     0.30300
C780        C  0.16832960  0.83635941  0.96199238     0.30300
C781        C  0.14584422  0.85783375  0.52242277    -0.05900
C782        C  0.21199149  0.86020560  0.52279288    -0.06700
C783        C  0.14636948  0.79232028  0.52246774    -0.06600
C784        C  0.14489632  0.85736569  0.98208440    -0.05900
C785        C  0.21325034  0.85911457  0.98245483    -0.06700
C786        C  0.14681141  0.79130610  0.98224448    -0.06600
C787        C  0.12249986  0.87763997  0.97167315    -0.32000
N788        N  0.11180433  0.89102223  0.50450268     0.14500
C789        C  0.12701175  0.88032604  0.53536047    -0.32000
H790        H  0.12449467  0.88872668  0.56487492     0.16500
C791        C  0.25669594  0.87878896  0.97323564    -0.31000
N792        N  0.28016357  0.89325447  0.50642093     0.13300
C793        C  0.25319410  0.88302605  0.53658991    -0.30900
C794        C  0.12746972  0.74782387  0.97321497    -0.31200
N795        N  0.11492136  0.72436606  0.50670327     0.13800
H796        H  0.12252734  0.73402298  0.94461909     0.16400
C797        C  0.12602699  0.75125923  0.53682420    -0.31200
H798        H  0.12013616  0.74155791  0.56692339     0.16400
H799        H  0.26310327  0.89105537  0.56636760     0.16400
H800        H  0.11533971  0.88308553  0.94254258     0.16500
H801        H  0.27031237  0.88158116  0.94477034     0.16400
C802        C  0.16463133  0.83620252  0.70884571     0.30300
C803        C  0.16428760  0.83348237  0.78826510     0.30300
C804        C  0.14538084  0.85995992  0.72867340    -0.05900
C805        C  0.14086139  0.79184166  0.72674424    -0.06700
C806        C  0.20873861  0.85690652  0.72773004    -0.06600
C807        C  0.14404511  0.85826494  0.76902249    -0.05900
C808        C  0.14080784  0.78922641  0.76692987    -0.06700
C809        C  0.20941126  0.85486139  0.76804339    -0.06600
C810        C  0.12412319  0.88092196  0.77996253    -0.32000
N811        N  0.11482193  0.89616384  0.74741416     0.14500
C812        C  0.12894882  0.88474785  0.71628648    -0.32000
H813        H  0.12697096  0.89379546  0.68685777     0.16500
C814        C  0.12184746  0.74543417  0.77470121    -0.31000
N815        N  0.10933360  0.72328405  0.74073353     0.13300
C816        C  0.12117972  0.75134868  0.71130770    -0.30900
C817        C  0.25270736  0.87423118  0.77760645    -0.31200
N818        N  0.27668712  0.88889886  0.74454777     0.13800
H819        H  0.26595840  0.87817469  0.80635611     0.16400
C820        C  0.25022758  0.87963600  0.71427157    -0.31200
H821        H  0.26080704  0.88899262  0.68470602     0.16400
H822        H  0.11666181  0.74285293  0.68096506     0.16400
H823        H  0.11625694  0.88528463  0.80917749     0.16500
H824        H  0.11882315  0.73060681  0.80261390     0.16400
O825        O  0.45154453  0.52281311  0.52880962    -0.88100
C826        C  0.43228198  0.93859994  0.94014840     0.87900
Mg827      Mg  0.50150525  0.58984938  0.52709290     1.58100
O828        O  0.47921737  0.92612416  0.52557639    -0.87800
O829        O  0.42548792  0.96500017  0.56447837    -0.75100
C830        C  0.17870275  0.59086639  0.99102234     0.93000
O831        O  0.46788378  0.54507432  0.93675595    -0.75000
O832        O  0.16104747  0.61226925  0.98125747    -0.82500
Mg833      Mg  0.41214504  0.00010974  0.97685515     1.58000
C834        C  0.08961769  0.91422281  0.50681112     0.92900
O835        O  0.34795727  0.95477156  0.50620278    -0.80700
H836        H  0.47607849  0.91139155  0.58170656    -0.06100
C837        C  0.06617308  0.49788215  0.93959503     0.87900
O838        O  0.04657987  0.57893811  0.56571367    -0.75200
O839        O  0.42817330  0.95013330  0.97257843    -0.88000
O840        O  0.05018897  0.89523933  0.49741235    -0.80800
C841        C  0.41190480  0.82484180  0.98736113     0.93000
C842        C  0.32582529  0.91408988  0.50977989     0.92900
Mg843      Mg  0.09157983  0.50386344  0.52432507     1.58000
O844        O  0.15709444  0.55096278  0.99896603    -0.80700
O845        O  0.03501179  0.95782682  0.56312087    -0.75000
O846        O  0.39321770  0.84614545  0.99327133    -0.80800
O847        O  0.39452872  0.55169739  0.98443421    -0.82500
O848        O  0.11018388  0.65803775  0.50122380    -0.80800
C849        C  0.99572511  0.93045886  0.55763356     0.87300
O850        O  0.07575622  0.55379413  0.52694200    -0.88000
O851        O  0.05345649  0.98061425  0.97143823    -0.88100
O852        O  0.07952666  0.53752881  0.93483536    -0.75100
Mg853      Mg  0.41278038  0.90966029  0.52332701     1.58000
O854        O  0.45174671  0.84298764  0.97926954    -0.82500
H855        H  0.44164087  0.52380312  0.58562380    -0.06200
O856        O  0.02453123  0.57626410  0.97342796    -0.87800
H857        H  0.02685691  0.59037420  0.91719132    -0.06100
H858        H  0.09196295  0.56506694  0.58274186    -0.06200
C859        C  0.50748104  0.57183983  0.94159906     0.87300
C860        C  0.43954156  0.00495328  0.56056773     0.87900
C861        C  0.07275711  0.56615961  0.55929660     0.87900
H862        H  0.06504333  0.97869377  0.91515140    -0.06200
O863        O  0.45833676  0.92546876  0.93419202    -0.75300
Mg864      Mg  0.09103610  0.59314608  0.97476930     1.58000
H865        H  0.41391236  0.94038334  0.91629561    -0.06200
C866        C  0.41643190  0.59112575  0.99387532     0.92900
O867        O  0.05237977  0.65994185  0.52060039    -0.82500
C868        C  0.09149310  0.67864132  0.51006455     0.93000
O869        O  0.34306221  0.89146824  0.51597144    -0.82500
Mg870      Mg  0.00330869  0.91352881  0.97254297     1.58200
O871        O  0.45603047  0.60928032  0.00203910    -0.80800
O872        O  0.11017496  0.95328060  0.51745213    -0.82500
O873        O  0.47818399  0.55210535  0.72004871    -0.88100
C874        C  0.06428886  0.57372999  0.80710389     0.87900
Mg875      Mg  0.41144473  0.50225836  0.72311742     1.58100
O876        O  0.07408239  0.52397071  0.72232038    -0.87800
O877        O  0.03438880  0.57736201  0.68267942    -0.75100
C878        C  0.41235322  0.82542315  0.76324310     0.93000
O879        O  0.45794299  0.53757460  0.81235914    -0.75000
O880        O  0.38999439  0.84283650  0.77017624    -0.82500
Mg881      Mg  0.00240614  0.59259247  0.77117588     1.58000
C882        C  0.09002920  0.91676188  0.74504477     0.92900
O883        O  0.04735275  0.65608901  0.74108335    -0.80700
H884        H  0.08606240  0.52440707  0.66579325    -0.06100
C885        C  0.50494356  0.93992328  0.81147921     0.87900
O886        O  0.42218233  0.95590034  0.68581676    -0.75200
O887        O  0.05200882  0.57647420  0.77460312    -0.88000
O888        O  0.10856964  0.95698417  0.75091177    -0.80800
C889        C  0.17663185  0.59350387  0.75849423     0.93000
C890        C  0.08782345  0.67774882  0.73635566     0.92900
Mg891      Mg  0.49788371  0.91108355  0.72873285     1.58000
O892        O  0.45295999  0.84742566  0.75919733    -0.80700
O893        O  0.04167262  0.96598852  0.68728450    -0.75000
O894        O  0.15535533  0.61139425  0.74956113    -0.80800
O895        O  0.45184211  0.61108329  0.76400314    -0.82500
O896        O  0.34303809  0.89363745  0.75088631    -0.80800
C897        C  0.06848983  0.00582160  0.69090000     0.87300
O898        O  0.44728749  0.92653749  0.72470631    -0.88000
O899        O  0.02188885  0.95186004  0.77940232    -0.88100
O900        O  0.46517648  0.92588875  0.81624305    -0.75100
Mg901      Mg  0.09066126  0.59047697  0.72254072     1.58000
O902        O  0.15863623  0.55428268  0.76887166    -0.82500
H903        H  0.47506309  0.56147656  0.66340240    -0.06200
O904        O  0.42548827  0.97989077  0.77701966    -0.87800
H905        H  0.41289244  0.97917893  0.83342198    -0.06100
H906        H  0.43600980  0.91039253  0.66889310    -0.06200
C907        C  0.43086523  0.49784824  0.80849372     0.87300
C908        C  0.99477239  0.56371211  0.68781107     0.87900
C909        C  0.43500814  0.92967923  0.69231166     0.87900
H910        H  0.02439042  0.94197020  0.83603667    -0.06200
O911        O  0.07728196  0.54774780  0.81394373    -0.75300
Mg912      Mg  0.40861915  0.91303292  0.77671699     1.58000
H913        H  0.06295160  0.59302851  0.83034020    -0.06200
C914        C  0.41243137  0.58973495  0.75481125     0.92900
O915        O  0.34130601  0.95139548  0.73054512    -0.82500
C916        C  0.32248928  0.91234729  0.74160147     0.93000
O917        O  0.10970870  0.66014320  0.72874169    -0.82500
Mg918      Mg  0.08876635  0.00240642  0.77619461     1.58200
O919        O  0.39342297  0.54980684  0.74713914    -0.80800
O920        O  0.05021738  0.89428728  0.73710264    -0.82500
C921        C  0.19556055  0.87052633  0.85316261    -0.26100
C922        C  0.16389825  0.83402742  0.83333231    -0.14100
C923        C  0.12895325  0.80338583  0.85615324     0.36500
C924        C  0.13177208  0.80445188  0.89701065    -0.25500
C925        C  0.16707767  0.83767417  0.91692526    -0.14700
C926        C  0.19612998  0.87388930  0.89391249     0.37600
N927        N  0.22305565  0.91606380  0.90977959    -0.89000
H928        H  0.21856927  0.89838255  0.83673133     0.18700
H929        H  0.10455763  0.78019351  0.91321679     0.18700
N930        N  0.08890544  0.77343644  0.83857457    -0.88000
H931        H  0.25518013  0.92464005  0.90636696     0.36100
H932        H  0.21657950  0.91796777  0.93882697     0.41200
H933        H  0.06572158  0.78046241  0.84828046     0.40800
H934        H  0.07983584  0.74260176  0.84864995     0.35700
C935        C  0.19326777  0.82582420  0.64656194    -0.26100
C936        C  0.16353908  0.83380907  0.66539123    -0.14100
C937        C  0.12709806  0.82623881  0.64410917     0.36500
C938        C  0.12908868  0.82652536  0.60398777    -0.25500
C939        C  0.16578600  0.83181281  0.58488161    -0.14700
C940        C  0.19381666  0.82300917  0.60661004     0.37600
N941        N  0.21913232  0.80630241  0.59038092    -0.89000
H942        H  0.21441025  0.81872272  0.66299429     0.18700
H943        H  0.10088639  0.82044200  0.58793637     0.18700
N944        N  0.08700468  0.81416851  0.66266831    -0.88000
H945        H  0.25165216  0.82827929  0.59524326     0.36100
H946        H  0.21418611  0.80007905  0.56089672     0.41200
H947        H  0.06461525  0.78284313  0.65407920     0.40800
H948        H  0.07616722  0.83428678  0.65238703     0.35700
C949        C  0.30785624  0.62714608  0.89569762    -0.26100
C950        C  0.33962519  0.66379704  0.91493581    -0.14100
C951        C  0.37698968  0.69236296  0.89339736     0.36500
C952        C  0.37404746  0.69211422  0.85339829    -0.25500
C953        C  0.33606723  0.66250239  0.83448599    -0.14700
C954        C  0.30652194  0.62544724  0.85545391     0.37600
N955        N  0.27703502  0.58594008  0.83628533    -0.89000
H956        H  0.28505871  0.59904980  0.91192922     0.18700
H957        H  0.40237701  0.71421106  0.83699961     0.18700
N958        N  0.41891453  0.71889430  0.91004185    -0.90200
H959        H  0.25745206  0.56221481  0.85631964     0.36100
H960        H  0.29503104  0.57467951  0.82225709     0.41200
H961        H  0.41963109  0.71455885  0.93972573     0.40800
H962        H  0.42906144  0.75119756  0.90461022     0.35700
C963        C  0.32569840  0.63213169  0.64602343    -0.26100
C964        C  0.33141276  0.66844530  0.66656114    -0.14100
C965        C  0.32838425  0.69997851  0.64435417     0.36500
C966        C  0.33084295  0.69978023  0.60333981    -0.25500
C967        C  0.33273328  0.66691987  0.58292151    -0.14700
C968        C  0.32500170  0.63052534  0.60510430     0.37600
N969        N  0.31374651  0.59074944  0.58650381    -0.89000
H970        H  0.31998243  0.60373841  0.66173963     0.18700
H971        H  0.32829416  0.72409503  0.58734639     0.18700
N972        N  0.31993188  0.73044894  0.66302614    -0.88000
H973        H  0.33442634  0.58053467  0.59651289     0.36100
H974        H  0.28266695  0.56779924  0.59535014     0.41200
H975        H  0.28966451  0.71321576  0.67608848     0.40800
H976        H  0.31819325  0.75110375  0.64280239     0.35700
C977        C  0.83558471  0.16777942  0.03783439     0.30300
C978        C  0.83666133  0.16614602  0.45831685     0.30300
C979        C  0.86110665  0.14822747  0.01871861    -0.05900
C980        C  0.79113165  0.14250590  0.01734052    -0.06700
C981        C  0.85618581  0.21247957  0.01656225    -0.06600
C982        C  0.85996552  0.14691838  0.47852544    -0.05900
C983        C  0.79230326  0.14271285  0.47695027    -0.06700
C984        C  0.85516371  0.21057582  0.47613377    -0.06600
C985        C  0.88040844  0.12628063  0.46529946    -0.32000
N986        N  0.89575863  0.11580011  0.49608483     0.14500
C987        C  0.88523067  0.12949238  0.02887015    -0.32000
H988        H  0.89384258  0.12525617  0.05778784     0.16500
C989        C  0.75110319  0.12557418  0.46342670    -0.31000
N990        N  0.72437780  0.11227957  0.99398244     0.13300
C991        C  0.74796051  0.12247644  0.02717384    -0.30900
C992        C  0.87291074  0.25148577  0.46142560    -0.31200
N993        N  0.88746284  0.27907142  0.99122381     0.13800
H994        H  0.87575786  0.26081354  0.43133410     0.16400
C995        C  0.87787002  0.25625294  0.02496234    -0.31200
H996        H  0.88743153  0.27078803  0.05323545     0.16400
H997        H  0.73478316  0.11716709  0.05613921     0.16400
H998        H  0.88365917  0.11906958  0.43553148     0.16500
H999        H  0.74091995  0.12362442  0.43371794     0.16400
C1000       C  0.83373404  0.16905861  0.21168665     0.30300
C1001       C  0.83381853  0.16576812  0.29117610     0.30300
C1002       C  0.85465418  0.14463876  0.23054138    -0.05900
C1003       C  0.85866851  0.21347150  0.23319564    -0.06700
C1004       C  0.78912009  0.14773971  0.23222665    -0.06600
C1005       C  0.85409709  0.14359433  0.27075452    -0.05900
C1006       C  0.85692487  0.21083153  0.27362551    -0.06700
C1007       C  0.78989624  0.14685599  0.27258367    -0.06600
C1008       C  0.87521575  0.12349161  0.28369593    -0.32000
N1009       N  0.88866109  0.11134635  0.25264342     0.14500
C1010       C  0.87708058  0.12423015  0.21995813    -0.32000
H1011       H  0.88552225  0.12005805  0.19091828     0.16500
C1012       C  0.87529661  0.25162698  0.28859990    -0.31000
N1013       N  0.89123055  0.27972350  0.25907863     0.13300
C1014       C  0.88214975  0.25742684  0.22520168    -0.30900
C1015       C  0.74873018  0.12962914  0.28620432    -0.31200
N1016       N  0.72231112  0.11800779  0.25563038     0.13800
H1017       H  0.73831997  0.12552933  0.31606319     0.16400
C1018       C  0.74613289  0.12909010  0.22241982    -0.31200
H1019       H  0.73309671  0.12332895  0.19344895     0.16400
H1020       H  0.89143514  0.27237828  0.19696779     0.16400
H1021       H  0.88078551  0.11834155  0.31347465     0.16500
H1022       H  0.87670156  0.26056570  0.31864692     0.16400
C1023       C  0.66776075  0.33597334  0.04146356     0.30300
C1024       C  0.66832960  0.33635944  0.46199241     0.30300
C1025       C  0.64584426  0.35783375  0.02242274    -0.05900
C1026       C  0.71199147  0.36020554  0.02279288    -0.06700
C1027       C  0.64636949  0.29232027  0.02246776    -0.06600
C1028       C  0.64489627  0.35736567  0.48208444    -0.05900
C1029       C  0.71325035  0.35911467  0.48245481    -0.06700
C1030       C  0.64681149  0.29130616  0.48224452    -0.06600
C1031       C  0.62249986  0.37764001  0.47167316    -0.32000
N1032       N  0.61180430  0.39102215  0.00450264     0.14500
C1033       C  0.62701181  0.38032606  0.03536037    -0.32000
H1034       H  0.62449479  0.38872681  0.06487482     0.16500
C1035       C  0.75669593  0.37878907  0.47323559    -0.31000
N1036       N  0.78016353  0.39325436  0.00642095     0.13300
C1037       C  0.75319404  0.38302582  0.03658990    -0.30900
C1038       C  0.62746976  0.24782396  0.47321499    -0.31200
N1039       N  0.61492129  0.22436605  0.00670327     0.13800
H1040       H  0.62252740  0.23402312  0.44461907     0.16400
C1041       C  0.62602699  0.25125924  0.03682424    -0.31200
H1042       H  0.62013614  0.24155797  0.06692345     0.16400
H1043       H  0.76310320  0.39105503  0.06636765     0.16400
H1044       H  0.61533983  0.38308566  0.44254260     0.16500
H1045       H  0.77031235  0.38158128  0.44477028     0.16400
C1046       C  0.66463136  0.33620252  0.20884570     0.30300
C1047       C  0.66428761  0.33348236  0.28826510     0.30300
C1048       C  0.64538089  0.35995994  0.22867338    -0.05900
C1049       C  0.64086139  0.29184168  0.22674428    -0.06700
C1050       C  0.70873863  0.35690643  0.22773006    -0.06600
C1051       C  0.64404515  0.35826495  0.26902245    -0.05900
C1052       C  0.64080785  0.28922645  0.26692987    -0.06700
C1053       C  0.70941128  0.35486135  0.26804341    -0.06600
C1054       C  0.62412321  0.38092194  0.27996242    -0.32000
N1055       N  0.61482191  0.39616381  0.24741411     0.14500
C1056       C  0.62894889  0.38474791  0.21628648    -0.32000
H1057       H  0.62697104  0.39379559  0.18685779     0.16500
C1058       C  0.62184749  0.24543422  0.27470123    -0.31000
N1059       N  0.60933359  0.22328406  0.24073361     0.13300
C1060       C  0.62117970  0.25134869  0.21130781    -0.30900
C1061       C  0.75270741  0.37423123  0.27760646    -0.31200
N1062       N  0.77668714  0.38889893  0.24454780     0.13800
H1063       H  0.76595848  0.37817483  0.30635611     0.16400
C1064       C  0.75022758  0.37963590  0.21427163    -0.31200
H1065       H  0.76080706  0.38899242  0.18470604     0.16400
H1066       H  0.61666179  0.24285292  0.18096514     0.16400
H1067       H  0.61625695  0.38528463  0.30917742     0.16500
H1068       H  0.61882326  0.23060696  0.30261396     0.16400
O1069       O  0.95154448  0.02281306  0.02880961    -0.88100
C1070       C  0.93228199  0.43859994  0.44014846     0.87900
Mg1071     Mg  0.00150519  0.08984938  0.02709289     1.58100
O1072       O  0.97921732  0.42612407  0.02557637    -0.87800
O1073       O  0.92548790  0.46500015  0.06447830    -0.75100
C1074       C  0.67870276  0.09086635  0.49102228     0.93000
O1075       O  0.96788370  0.04507423  0.43675598    -0.75000
O1076       O  0.66104743  0.11226915  0.48125737    -0.82500
Mg1077     Mg  0.91214506  0.50010973  0.47685509     1.58000
C1078       C  0.58961769  0.41422278  0.00681110     0.92900
O1079       O  0.84795721  0.45477146  0.00620293    -0.80700
H1080       H  0.97607855  0.41139177  0.08170660    -0.06100
C1081       C  0.56617302  0.99788203  0.43959507     0.87900
O1082       O  0.54657994  0.07893823  0.06571369    -0.75200
O1083       O  0.92817335  0.45013329  0.47257848    -0.88000
O1084       O  0.55018894  0.39523927  0.99741252    -0.80800
C1085       C  0.91190479  0.32484181  0.48736120     0.93000
C1086       C  0.82582523  0.41408979  0.00977995     0.92900
Mg1087     Mg  0.59157975  0.00386343  0.02432503     1.58000
O1088       O  0.65709447  0.05096272  0.49896601    -0.80700
O1089       O  0.53501179  0.45782691  0.06312074    -0.75000
O1090       O  0.89321769  0.34614544  0.49327150    -0.80800
O1091       O  0.89452863  0.05169734  0.48443415    -0.82500
O1092       O  0.61018392  0.15803778  0.00122393    -0.80800
C1093       C  0.49572508  0.43045892  0.05763350     0.87300
O1094       O  0.57575613  0.05379411  0.02694201    -0.88000
O1095       O  0.55345643  0.48061425  0.47143829    -0.88100
O1096       O  0.57952656  0.03752867  0.43483531    -0.75100
Mg1097     Mg  0.91278031  0.40966023  0.02332697     1.58000
O1098       O  0.95174666  0.34298763  0.47926944    -0.82500
H1099       H  0.94164084  0.02380308  0.08562374    -0.06200
O1100       O  0.52453125  0.07626416  0.47342794    -0.87800
H1101       H  0.52685673  0.09037413  0.41719124    -0.06100
H1102       H  0.59196302  0.06506706  0.08274186    -0.06200
C1103       C  0.00748094  0.07183979  0.44159908     0.87300
C1104       C  0.93954160  0.50495329  0.06056766     0.87900
C1105       C  0.57275710  0.06615964  0.05929663     0.87900
H1106       H  0.56504327  0.47869370  0.41515146    -0.06200
O1107       O  0.95833679  0.42546880  0.43419195    -0.75300
Mg1108     Mg  0.59103607  0.09314599  0.47476929     1.58000
H1109       H  0.91391220  0.44038329  0.41629575    -0.06200
C1110       C  0.91643182  0.09112569  0.49387529     0.92900
O1111       O  0.55237971  0.15994182  0.02060028    -0.82500
C1112       C  0.59149308  0.17864132  0.01006458     0.93000
O1113       O  0.84306215  0.39146814  0.01597150    -0.82500
Mg1114     Mg  0.50330868  0.41352884  0.47254294     1.58200
O1115       O  0.95603041  0.10928026  0.50203903    -0.80800
O1116       O  0.61017503  0.45328061  0.01745199    -0.82500
O1117       O  0.97818394  0.05210518  0.22004881    -0.88100
C1118       C  0.56428893  0.07372995  0.30710392     0.87900
Mg1119     Mg  0.91144472  0.00225830  0.22311743     1.58100
O1120       O  0.57408237  0.02397068  0.22232030    -0.87800
O1121       O  0.53438878  0.07736204  0.18267949    -0.75100
C1122       C  0.91235318  0.32542309  0.26324304     0.93000
O1123       O  0.95794294  0.03757451  0.31235916    -0.75000
O1124       O  0.88999432  0.34283643  0.27017615    -0.82500
Mg1125     Mg  0.50240610  0.09259245  0.27117590     1.58000
C1126       C  0.59002916  0.41676185  0.24504473     0.92900
O1127       O  0.54735273  0.15608902  0.24108344    -0.80700
H1128       H  0.58606243  0.02440709  0.16579318    -0.06100
C1129       C  0.00494353  0.43992317  0.31147927     0.87900
O1130       O  0.92218223  0.45590027  0.18581662    -0.75200
O1131       O  0.55200887  0.07647427  0.27460318    -0.88000
O1132       O  0.60856961  0.45698414  0.25091173    -0.80800
C1133       C  0.67663192  0.09350390  0.25849418     0.93000
C1134       C  0.58782343  0.17774880  0.23635576     0.92900
Mg1135     Mg  0.99788375  0.41108358  0.22873281     1.58000
O1136       O  0.95295993  0.34742560  0.25919719    -0.80700
O1137       O  0.54167257  0.46598852  0.18728445    -0.75000
O1138       O  0.65535534  0.11139424  0.24956119    -0.80800
O1139       O  0.95184221  0.11108335  0.26400293    -0.82500
O1140       O  0.84303808  0.39363745  0.25088614    -0.80800
C1141       C  0.56848986  0.50582155  0.19089988     0.87300
O1142       O  0.94728756  0.42653759  0.22470617    -0.88000
O1143       O  0.52188880  0.45186003  0.27940242    -0.88100
O1144       O  0.96517643  0.42588862  0.31624308    -0.75100
Mg1145     Mg  0.59066126  0.09047696  0.22254076     1.58000
O1146       O  0.65863635  0.05428267  0.26887154    -0.82500
H1147       H  0.97506286  0.06147639  0.16340255    -0.06200
O1148       O  0.92548830  0.47989079  0.27701957    -0.87800
H1149       H  0.91289234  0.47917887  0.33342189    -0.06100
H1150       H  0.93600989  0.41039255  0.16889299    -0.06200
C1151       C  0.93086527  0.99784812  0.30849371     0.87300
C1152       C  0.49477233  0.06371201  0.18781114     0.87900
C1153       C  0.93500817  0.42967922  0.19231151     0.87900
H1154       H  0.52439023  0.44196996  0.33603678    -0.06200
O1155       O  0.57728206  0.04774778  0.31394366    -0.75300
Mg1156     Mg  0.90861915  0.41303291  0.27671688     1.58000
H1157       H  0.56295174  0.09302840  0.33034036    -0.06200
C1158       C  0.91243144  0.08973497  0.25481116     0.92900
O1159       O  0.84130602  0.45139551  0.23054507    -0.82500
C1160       C  0.82248928  0.41234733  0.24160142     0.93000
O1161       O  0.60970867  0.16014318  0.22874180    -0.82500
Mg1162     Mg  0.58876639  0.50240638  0.27619464     1.58200
O1163       O  0.89342302  0.04980681  0.24713929    -0.80800
O1164       O  0.55021734  0.39428726  0.23710254    -0.82500
C1165       C  0.69556051  0.37052633  0.35316260    -0.26100
C1166       C  0.66389821  0.33402741  0.33333233    -0.14100
C1167       C  0.62895322  0.30338581  0.35615328     0.36500
C1168       C  0.63177213  0.30445191  0.39701067    -0.25500
C1169       C  0.66707768  0.33767419  0.41692528    -0.14700
C1170       C  0.69612996  0.37388930  0.39391248     0.37600
N1171       N  0.72305559  0.41606380  0.40977952    -0.89000
H1172       H  0.71856920  0.39838253  0.33673132     0.18700
H1173       H  0.60455765  0.28019351  0.41321684     0.18700
N1174       N  0.58890539  0.27343635  0.33857467    -0.88000
H1175       H  0.75518007  0.42464004  0.40636687     0.36100
H1176       H  0.71657938  0.41796783  0.43882687     0.41200
H1177       H  0.56572147  0.28046225  0.34828055     0.40800
H1178       H  0.57983586  0.24260171  0.34865012     0.35700
C1179       C  0.69326782  0.32582416  0.14656188    -0.26100
C1180       C  0.66353909  0.33380901  0.16539119    -0.14100
C1181       C  0.62709804  0.32623874  0.14410914     0.36500
C1182       C  0.62908867  0.32652540  0.10398771    -0.25500
C1183       C  0.66578601  0.33181284  0.08488157    -0.14700
C1184       C  0.69381664  0.32300909  0.10660997     0.37600
N1185       N  0.71913221  0.30630224  0.09038080    -0.89000
H1186       H  0.71441035  0.31872276  0.16299417     0.18700
H1187       H  0.60088642  0.32044215  0.08793631     0.18700
N1188       N  0.58700471  0.31416855  0.16266832    -0.88000
H1189       H  0.75165206  0.32827902  0.09524323     0.36100
H1190       H  0.71418608  0.30007891  0.06089656     0.41200
H1191       H  0.56461516  0.28284317  0.15407928     0.40800
H1192       H  0.57616741  0.33428695  0.15238709     0.35700
C1193       C  0.80785624  0.12714595  0.39569768    -0.26100
C1194       C  0.83962517  0.16379703  0.41493578    -0.14100
C1195       C  0.87698971  0.19236298  0.39339736     0.36500
C1196       C  0.87404751  0.19211410  0.35339824    -0.25500
C1197       C  0.83606725  0.16250230  0.33448598    -0.14700
C1198       C  0.80652193  0.12544714  0.35545391     0.37600
N1199       N  0.77703497  0.08594002  0.33628532    -0.89000
H1200       H  0.78505880  0.09904973  0.41192933     0.18700
H1201       H  0.90237706  0.21421087  0.33699950     0.18700
N1202       N  0.91891453  0.21889441  0.41004189    -0.90200
H1203       H  0.75745196  0.06221481  0.35631962     0.36100
H1204       H  0.79503093  0.07467938  0.32225711     0.41200
H1205       H  0.91963110  0.21455897  0.43972577     0.40800
H1206       H  0.92906142  0.25119765  0.40461022     0.35700
C1207       C  0.82569852  0.13213184  0.14602335    -0.26100
C1208       C  0.83141280  0.16844536  0.16656110    -0.14100
C1209       C  0.82838421  0.19997848  0.14435412     0.36500
C1210       C  0.83084288  0.19978018  0.10333977    -0.25500
C1211       C  0.83273328  0.16691986  0.08292149    -0.14700
C1212       C  0.82500180  0.13052541  0.10510427     0.37600
N1213       N  0.81374671  0.09074949  0.08650384    -0.89000
H1214       H  0.81998257  0.10373852  0.16173959     0.18700
H1215       H  0.82829401  0.22409494  0.08734634     0.18700
N1216       N  0.81993177  0.23044887  0.16302607    -0.88000
H1217       H  0.83442653  0.08053475  0.09651305     0.36100
H1218       H  0.78266712  0.06779927  0.09535008     0.41200
H1219       H  0.78966440  0.21321558  0.17608841     0.40800
H1220       H  0.81819296  0.25110358  0.14280229     0.35700
C1221       C  0.83558469  0.16777938  0.53783438     0.30300
C1222       C  0.83666130  0.16614603  0.95831687     0.30300
C1223       C  0.86110668  0.14822747  0.51871860    -0.05900
C1224       C  0.79113163  0.14250581  0.51734051    -0.06700
C1225       C  0.85618573  0.21247952  0.51656223    -0.06600
C1226       C  0.85996544  0.14691833  0.97852547    -0.05900
C1227       C  0.79230326  0.14271292  0.97695032    -0.06700
C1228       C  0.85516374  0.21057584  0.97613377    -0.06600
C1229       C  0.88040844  0.12628066  0.96529945    -0.32000
N1230       N  0.89575872  0.11580022  0.99608480     0.14500
C1231       C  0.88523059  0.12949228  0.52887019    -0.32000
H1232       H  0.89384243  0.12525601  0.55778787     0.16500
C1233       C  0.75110320  0.12557413  0.96342678    -0.31000
N1234       N  0.72437781  0.11227956  0.49398239     0.13300
C1235       C  0.74796048  0.12247639  0.52717382    -0.30900
C1236       C  0.87291070  0.25148574  0.96142552    -0.31200
N1237       N  0.88746287  0.27907144  0.49122386     0.13800
H1238       H  0.87575777  0.26081341  0.93133401     0.16400
C1239       C  0.87786995  0.25625286  0.52496231    -0.31200
H1240       H  0.88743144  0.27078787  0.55323545     0.16400
H1241       H  0.73478308  0.11716703  0.55613919     0.16400
H1242       H  0.88365919  0.11906967  0.93553147     0.16500
H1243       H  0.74091993  0.12362427  0.93371797     0.16400
C1244       C  0.83373404  0.16905863  0.71168670     0.30300
C1245       C  0.83381852  0.16576818  0.79117615     0.30300
C1246       C  0.85465420  0.14463880  0.73054142    -0.05900
C1247       C  0.85866849  0.21347153  0.73319569    -0.06700
C1248       C  0.78912007  0.14773969  0.73222668    -0.06600
C1249       C  0.85409709  0.14359440  0.77075457    -0.05900
C1250       C  0.85692485  0.21083156  0.77362554    -0.06700
C1251       C  0.78989624  0.14685605  0.77258372    -0.06600
C1252       C  0.87521572  0.12349167  0.78369597    -0.32000
N1253       N  0.88866104  0.11134635  0.75264349     0.14500
C1254       C  0.87708060  0.12423016  0.71995818    -0.32000
H1255       H  0.88552235  0.12005808  0.69091838     0.16500
C1256       C  0.87529664  0.25162699  0.78859991    -0.31000
N1257       N  0.89123066  0.27972357  0.75907868     0.13300
C1258       C  0.88214979  0.25742688  0.72520175    -0.30900
C1259       C  0.74873018  0.12962921  0.78620434    -0.31200
N1260       N  0.72231111  0.11800781  0.75563038     0.13800
H1261       H  0.73831998  0.12552940  0.81606322     0.16400
C1262       C  0.74613284  0.12908999  0.72241978    -0.31200
H1263       H  0.73309670  0.12332871  0.69344895     0.16400
H1264       H  0.89143512  0.27237828  0.69696784     0.16400
H1265       H  0.88078552  0.11834166  0.81347473     0.16500
H1266       H  0.87670150  0.26056566  0.81864697     0.16400
C1267       C  0.66776078  0.33597334  0.54146358     0.30300
C1268       C  0.66832955  0.33635940  0.96199239     0.30300
C1269       C  0.64584428  0.35783378  0.52242278    -0.05900
C1270       C  0.71199154  0.36020557  0.52279289    -0.06700
C1271       C  0.64636950  0.29232028  0.52246777    -0.06600
C1272       C  0.64489620  0.35736560  0.98208443    -0.05900
C1273       C  0.71325030  0.35911463  0.98245482    -0.06700
C1274       C  0.64681145  0.29130611  0.98224450    -0.06600
C1275       C  0.62249976  0.37763990  0.97167318    -0.32000
N1276       N  0.61180434  0.39102220  0.50450266     0.14500
C1277       C  0.62701176  0.38032602  0.53536046    -0.32000
H1278       H  0.62449459  0.38872663  0.56487492     0.16500
C1279       C  0.75669589  0.37878897  0.97323561    -0.31000
N1280       N  0.78016360  0.39325453  0.50642091     0.13300
C1281       C  0.75319412  0.38302594  0.53658991    -0.30900
C1282       C  0.62746970  0.24782390  0.97321498    -0.31200
N1283       N  0.61492130  0.22436605  0.50670323     0.13800
H1284       H  0.62252731  0.23402302  0.94461910     0.16400
C1285       C  0.62602695  0.25125920  0.53682419    -0.31200
H1286       H  0.62013605  0.24155785  0.56692337     0.16400
H1287       H  0.76310325  0.39105514  0.56636763     0.16400
H1288       H  0.61533964  0.38308550  0.94254260     0.16500
H1289       H  0.77031229  0.38158116  0.94477032     0.16400
C1290       C  0.66463134  0.33620251  0.70884573     0.30300
C1291       C  0.66428759  0.33348230  0.78826511     0.30300
C1292       C  0.64538090  0.35995993  0.72867343    -0.05900
C1293       C  0.64086137  0.29184164  0.72674424    -0.06700
C1294       C  0.70873863  0.35690648  0.72773004    -0.06600
C1295       C  0.64404512  0.35826491  0.76902253    -0.05900
C1296       C  0.64080781  0.28922636  0.76692987    -0.06700
C1297       C  0.70941125  0.35486133  0.76804341    -0.06600
C1298       C  0.62412309  0.38092185  0.77996255    -0.32000
N1299       N  0.61482184  0.39616372  0.74741416     0.14500
C1300       C  0.62894888  0.38474788  0.71628651    -0.32000
H1301       H  0.62697108  0.39379554  0.68685781     0.16500
C1302       C  0.62184742  0.24543413  0.77470121    -0.31000
N1303       N  0.60933350  0.22328399  0.74073354     0.13300
C1304       C  0.62117964  0.25134863  0.71130771    -0.30900
C1305       C  0.75270737  0.37423111  0.77760646    -0.31200
N1306       N  0.77668711  0.38889879  0.74454778     0.13800
H1307       H  0.76595841  0.37817464  0.80635612     0.16400
C1308       C  0.75022758  0.37963595  0.71427157    -0.31200
H1309       H  0.76080707  0.38899256  0.68470601     0.16400
H1310       H  0.61666173  0.24285287  0.68096508     0.16400
H1311       H  0.61625677  0.38528450  0.80917749     0.16500
H1312       H  0.61882317  0.23060683  0.80261393     0.16400
O1313       O  0.95154452  0.02281313  0.52880963    -0.88100
C1314       C  0.93228192  0.43859986  0.94014842     0.87900
Mg1315     Mg  0.00150518  0.08984942  0.52709290     1.58100
O1316       O  0.97921727  0.42612405  0.52557637    -0.87800
O1317       O  0.92548786  0.46500015  0.56447836    -0.75100
C1318       C  0.67870276  0.09086642  0.99102234     0.93000
O1319       O  0.96788369  0.04507431  0.93675594    -0.75000
O1320       O  0.66104746  0.11226925  0.98125742    -0.82500
Mg1321     Mg  0.91214502  0.50010973  0.97685515     1.58000
C1322       C  0.58961769  0.41422278  0.50681111     0.92900
O1323       O  0.84795732  0.45477153  0.50620281    -0.80700
H1324       H  0.97607865  0.41139165  0.58170661    -0.06100
C1325       C  0.56617302  0.99788212  0.93959502     0.87900
O1326       O  0.54657982  0.07893815  0.56571370    -0.75200
O1327       O  0.92817321  0.45013324  0.97257844    -0.88000
O1328       O  0.55018899  0.39523929  0.49741239    -0.80800
C1329       C  0.91190474  0.32484177  0.98736114     0.93000
C1330       C  0.82582530  0.41408987  0.50977987     0.92900
Mg1331     Mg  0.59157982  0.00386344  0.52432514     1.58000
O1332       O  0.65709445  0.05096280  0.99896609    -0.80700
O1333       O  0.53501178  0.45782690  0.56312072    -0.75000
O1334       O  0.89321762  0.34614539  0.99327134    -0.80800
O1335       O  0.89452859  0.05169736  0.98443421    -0.82500
O1336       O  0.61018381  0.15803770  0.50122380    -0.80800
C1337       C  0.49572511  0.43045886  0.55763349     0.87300
O1338       O  0.57575623  0.05379415  0.52694211    -0.88000
O1339       O  0.55345647  0.48061424  0.97143825    -0.88100
O1340       O  0.57952661  0.03752879  0.93483532    -0.75100
Mg1341     Mg  0.91278032  0.40966028  0.52332701     1.58000
O1342       O  0.95174665  0.34298760  0.97926955    -0.82500
H1343       H  0.94164109  0.02380319  0.58562383    -0.06200
O1344       O  0.52453120  0.07626403  0.97342796    -0.87800
H1345       H  0.52685681  0.09037430  0.91719134    -0.06100
H1346       H  0.59196299  0.06506716  0.58274197    -0.06200
C1347       C  0.00748094  0.07183985  0.94159909     0.87300
C1348       C  0.93954153  0.50495326  0.56056773     0.87900
C1349       C  0.57275708  0.06615966  0.55929669     0.87900
H1350       H  0.56504353  0.47869385  0.91515143    -0.06200
O1351       O  0.95833669  0.42546867  0.93419205    -0.75300
Mg1352     Mg  0.59103609  0.09314607  0.97476930     1.58000
H1353       H  0.91391229  0.44038324  0.91629561    -0.06200
C1354       C  0.91643184  0.09112573  0.99387531     0.92900
O1355       O  0.55237972  0.15994185  0.52060039    -0.82500
C1356       C  0.59149304  0.17864130  0.51006452     0.93000
O1357       O  0.84306217  0.39146818  0.51597143    -0.82500
Mg1358     Mg  0.50330866  0.41352878  0.97254299     1.58200
O1359       O  0.95603040  0.10928023  0.00203910    -0.80800
O1360       O  0.61017497  0.45328058  0.51745208    -0.82500
O1361       O  0.97818401  0.05210529  0.72004868    -0.88100
C1362       C  0.56428884  0.07372987  0.80710389     0.87900
Mg1363     Mg  0.91144477  0.00225836  0.72311745     1.58100
O1364       O  0.57408239  0.02397074  0.72232035    -0.87800
O1365       O  0.53438875  0.07736194  0.68267939    -0.75100
C1366       C  0.91235323  0.32542316  0.76324312     0.93000
O1367       O  0.95794292  0.03757454  0.81235911    -0.75000
O1368       O  0.88999433  0.34283645  0.77017624    -0.82500
Mg1369     Mg  0.50240610  0.09259241  0.77117587     1.58000
C1370       C  0.59002912  0.41676179  0.74504475     0.92900
O1371       O  0.54735266  0.15608892  0.74108335    -0.80700
H1372       H  0.58606244  0.02440715  0.66579327    -0.06100
C1373       C  0.00494355  0.43992322  0.81147923     0.87900
O1374       O  0.92218237  0.45590032  0.68581668    -0.75200
O1375       O  0.55200874  0.07647408  0.77460313    -0.88000
O1376       O  0.60856959  0.45698408  0.75091177    -0.80800
C1377       C  0.67663191  0.09350390  0.75849422     0.93000
C1378       C  0.58782336  0.17774874  0.73635567     0.92900
Mg1379     Mg  0.99788374  0.41108358  0.72873286     1.58000
O1380       O  0.95295998  0.34742573  0.75919731    -0.80700
O1381       O  0.54167251  0.46598849  0.68728451    -0.75000
O1382       O  0.65535531  0.11139419  0.74956108    -0.80800
O1383       O  0.95184217  0.11108339  0.76400310    -0.82500
O1384       O  0.84303808  0.39363743  0.75088633    -0.80800
C1385       C  0.56848979  0.50582153  0.69089999     0.87300
O1386       O  0.94728757  0.42653760  0.72470634    -0.88000
O1387       O  0.52188887  0.45186003  0.77940234    -0.88100
O1388       O  0.96517647  0.42588873  0.81624303    -0.75100
Mg1389     Mg  0.59066121  0.09047692  0.72254073     1.58000
O1390       O  0.65863636  0.05428270  0.76887169    -0.82500
H1391       H  0.97506307  0.06147645  0.66340238    -0.06200
O1392       O  0.92548844  0.47989088  0.77701961    -0.87800
H1393       H  0.91289239  0.47917900  0.83342191    -0.06100
H1394       H  0.93600975  0.41039235  0.66889324    -0.06200
C1395       C  0.93086525  0.99784813  0.80849376     0.87300
C1396       C  0.49477233  0.06371205  0.68781107     0.87900
C1397       C  0.93500817  0.42967920  0.69231169     0.87900
H1398       H  0.52439025  0.44196997  0.83603673    -0.06200
O1399       O  0.57728203  0.04774776  0.81394369    -0.75300
Mg1400     Mg  0.90861917  0.41303296  0.77671698     1.58000
H1401       H  0.56295159  0.09302837  0.83034025    -0.06200
C1402       C  0.91243142  0.08973501  0.75481125     0.92900
O1403       O  0.84130597  0.45139543  0.73054513    -0.82500
C1404       C  0.82248925  0.41234725  0.74160149     0.93000
O1405       O  0.60970861  0.16014313  0.72874170    -0.82500
Mg1406     Mg  0.58876636  0.50240639  0.77619464     1.58200
O1407       O  0.89342309  0.04980690  0.74713918    -0.80800
O1408       O  0.55021729  0.39428723  0.73710262    -0.82500
C1409       C  0.69556047  0.37052625  0.85316262    -0.26100
C1410       C  0.66389820  0.33402733  0.83333232    -0.14100
C1411       C  0.62895317  0.30338574  0.85615325     0.36500
C1412       C  0.63177199  0.30445181  0.89701066    -0.25500
C1413       C  0.66707759  0.33767412  0.91692527    -0.14700
C1414       C  0.69612989  0.37388924  0.89391249     0.37600
N1415       N  0.72305555  0.41606374  0.90977957    -0.89000
H1416       H  0.71856919  0.39838247  0.83673133     0.18700
H1417       H  0.60455754  0.28019345  0.91321680     0.18700
N1418       N  0.58890535  0.27343637  0.83857456    -0.88000
H1419       H  0.75518005  0.42464002  0.90636691     0.36100
H1420       H  0.71657938  0.41796773  0.93882695     0.41200
H1421       H  0.56572147  0.28046234  0.84828042     0.40800
H1422       H  0.57983569  0.24260168  0.84864997     0.35700
C1423       C  0.69326782  0.32582426  0.64656195    -0.26100
C1424       C  0.66353908  0.33380907  0.66539124    -0.14100
C1425       C  0.62709804  0.32623877  0.64410918     0.36500
C1426       C  0.62908868  0.32652541  0.60398776    -0.25500
C1427       C  0.66578602  0.33181284  0.58488162    -0.14700
C1428       C  0.69381665  0.32300915  0.60661005     0.37600
N1429       N  0.71913225  0.30630231  0.59038094    -0.89000
H1430       H  0.71441036  0.31872287  0.66299428     0.18700
H1431       H  0.60088640  0.32044210  0.58793639     0.18700
N1432       N  0.58700464  0.31416844  0.66266831    -0.88000
H1433       H  0.75165210  0.32827917  0.59524328     0.36100
H1434       H  0.71418605  0.30007894  0.56089671     0.41200
H1435       H  0.56461522  0.28284309  0.65407912     0.40800
H1436       H  0.57616720  0.33428673  0.65238709     0.35700
C1437       C  0.80785635  0.12714602  0.89569765    -0.26100
C1438       C  0.83962518  0.16379710  0.91493580    -0.14100
C1439       C  0.87698967  0.19236302  0.89339735     0.36500
C1440       C  0.87404746  0.19211415  0.85339828    -0.25500
C1441       C  0.83606725  0.16250234  0.83448599    -0.14700
C1442       C  0.80652203  0.12544716  0.85545392     0.37600
N1443       N  0.77703498  0.08594006  0.83628535    -0.89000
H1444       H  0.78505888  0.09904977  0.91192930     0.18700
H1445       H  0.90237704  0.21421092  0.83699955     0.18700
N1446       N  0.91891453  0.21889431  0.91004185    -0.90200
H1447       H  0.75745200  0.06221481  0.85631965     0.36100
H1448       H  0.79503086  0.07467938  0.82225704     0.41200
H1449       H  0.91963103  0.21455879  0.93972572     0.40800
H1450       H  0.92906152  0.25119761  0.90461032     0.35700
C1451       C  0.82569851  0.13213173  0.64602343    -0.26100
C1452       C  0.83141275  0.16844529  0.66656114    -0.14100
C1453       C  0.82838426  0.19997851  0.64435416     0.36500
C1454       C  0.83084301  0.19978028  0.60333980    -0.25500
C1455       C  0.83273326  0.16691986  0.58292151    -0.14700
C1456       C  0.82500174  0.13052533  0.60510429     0.37600
N1457       N  0.81374663  0.09074945  0.58650382    -0.89000
H1458       H  0.81998264  0.10373849  0.66173964     0.18700
H1459       H  0.82829425  0.22409509  0.58734641     0.18700
N1460       N  0.81993181  0.23044889  0.66302614    -0.88000
H1461       H  0.83442648  0.08053473  0.59651293     0.36100
H1462       H  0.78266709  0.06779922  0.59535012     0.41200
H1463       H  0.78966440  0.21321565  0.67608841     0.40800
H1464       H  0.81819313  0.25110368  0.64280237     0.35700
C1465       C  0.83558467  0.66777936  0.03783440     0.30300
C1466       C  0.83666127  0.66614601  0.45831685     0.30300
C1467       C  0.86110661  0.64822740  0.01871861    -0.05900
C1468       C  0.79113162  0.64250585  0.01734052    -0.06700
C1469       C  0.85618575  0.71247953  0.01656225    -0.06600
C1470       C  0.85996542  0.64691831  0.47852543    -0.05900
C1471       C  0.79230323  0.64271290  0.47695027    -0.06700
C1472       C  0.85516370  0.71057582  0.47613376    -0.06600
C1473       C  0.88040844  0.62628062  0.46529945    -0.32000
N1474       N  0.89575874  0.61580022  0.49608480     0.14500
C1475       C  0.88523062  0.62949230  0.02887013    -0.32000
H1476       H  0.89384254  0.62525606  0.05778783     0.16500
C1477       C  0.75110317  0.62557416  0.46342671    -0.31000
N1478       N  0.72437780  0.61227946  0.99398243     0.13300
C1479       C  0.74796047  0.62247633  0.02717384    -0.30900
C1480       C  0.87291066  0.75148574  0.46142560    -0.31200
N1481       N  0.88746283  0.77907142  0.99122379     0.13800
H1482       H  0.87575773  0.76081351  0.43133409     0.16400
C1483       C  0.87786990  0.75625290  0.02496231    -0.31200
H1484       H  0.88743143  0.77078800  0.05323542     0.16400
H1485       H  0.73478308  0.61716697  0.05613920     0.16400
H1486       H  0.88365921  0.61906961  0.43553148     0.16500
H1487       H  0.74091995  0.62362437  0.43371793     0.16400
C1488       C  0.83373409  0.66905864  0.21168664     0.30300
C1489       C  0.83381857  0.66576818  0.29117610     0.30300
C1490       C  0.85465422  0.64463882  0.23054138    -0.05900
C1491       C  0.85866853  0.71347154  0.23319563    -0.06700
C1492       C  0.78912013  0.64773970  0.23222665    -0.06600
C1493       C  0.85409712  0.64359439  0.27075454    -0.05900
C1494       C  0.85692492  0.71083158  0.27362550    -0.06700
C1495       C  0.78989629  0.64685605  0.27258368    -0.06600
C1496       C  0.87521573  0.62349163  0.28369596    -0.32000
N1497       N  0.88866103  0.61134636  0.25264344     0.14500
C1498       C  0.87708059  0.62423016  0.21995813    -0.32000
H1499       H  0.88552230  0.62005801  0.19091831     0.16500
C1500       C  0.87529672  0.75162702  0.28859990    -0.31000
N1501       N  0.89123065  0.77972356  0.25907863     0.13300
C1502       C  0.88214976  0.75742687  0.22520168    -0.30900
C1503       C  0.74873021  0.62962917  0.28620432    -0.31200
N1504       N  0.72231116  0.61800779  0.25563038     0.13800
H1505       H  0.73832001  0.62552934  0.31606318     0.16400
C1506       C  0.74613294  0.62909003  0.22241982    -0.31200
H1507       H  0.73309681  0.62332882  0.19344893     0.16400
H1508       H  0.89143508  0.77237827  0.19696777     0.16400
H1509       H  0.88078555  0.61834158  0.31347466     0.16500
H1510       H  0.87670171  0.76056572  0.31864693     0.16400
C1511       C  0.66776076  0.83597333  0.04146354     0.30300
C1512       C  0.66832964  0.83635943  0.46199240     0.30300
C1513       C  0.64584437  0.85783381  0.02242272    -0.05900
C1514       C  0.71199153  0.86020550  0.02279288    -0.06700
C1515       C  0.64636945  0.79232025  0.02246775    -0.06600
C1516       C  0.64489631  0.85736566  0.48208443    -0.05900
C1517       C  0.71325039  0.85911463  0.48245482    -0.06700
C1518       C  0.64681152  0.79130616  0.48224450    -0.06600
C1519       C  0.62249992  0.87764001  0.47167318    -0.32000
N1520       N  0.61180433  0.89102213  0.00450265     0.14500
C1521       C  0.62701182  0.88032602  0.03536039    -0.32000
H1522       H  0.62449467  0.88872661  0.06487484     0.16500
C1523       C  0.75669600  0.87878899  0.47323563    -0.31000
N1524       N  0.78016361  0.89325449  0.00642097     0.13300
C1525       C  0.75319412  0.88302595  0.03658990    -0.30900
C1526       C  0.62746972  0.74782395  0.47321502    -0.31200
N1527       N  0.61492132  0.72436602  0.00670328     0.13800
H1528       H  0.62252722  0.73402304  0.44461910     0.16400
C1529       C  0.62602690  0.75125921  0.03682424    -0.31200
H1530       H  0.62013598  0.74155794  0.06692344     0.16400
H1531       H  0.76310332  0.89105529  0.06636762     0.16400
H1532       H  0.61533983  0.88308561  0.44254261     0.16500
H1533       H  0.77031249  0.88158116  0.44477034     0.16400
C1534       C  0.66463128  0.83620250  0.20884566     0.30300
C1535       C  0.66428753  0.83348232  0.28826506     0.30300
C1536       C  0.64538084  0.85995994  0.22867334    -0.05900
C1537       C  0.64086127  0.79184164  0.22674421    -0.06700
C1538       C  0.70873857  0.85690645  0.22773001    -0.06600
C1539       C  0.64404510  0.85826493  0.26902243    -0.05900
C1540       C  0.64080773  0.78922641  0.26692981    -0.06700
C1541       C  0.70941120  0.85486133  0.26804337    -0.06600
C1542       C  0.62412312  0.88092189  0.27996242    -0.32000
N1543       N  0.61482178  0.89616373  0.24741410     0.14500
C1544       C  0.62894877  0.88474788  0.21628645    -0.32000
H1545       H  0.62697092  0.89379557  0.18685778     0.16500
C1546       C  0.62184739  0.74543422  0.27470118    -0.31000
N1547       N  0.60933357  0.72328400  0.24073358     0.13300
C1548       C  0.62117960  0.75134859  0.21130776    -0.30900
C1549       C  0.75270732  0.87423112  0.27760647    -0.31200
N1550       N  0.77668707  0.88889874  0.24454780     0.13800
H1551       H  0.76595837  0.87817470  0.30635612     0.16400
C1552       C  0.75022757  0.87963590  0.21427162    -0.31200
H1553       H  0.76080714  0.88899256  0.18470608     0.16400
H1554       H  0.61666168  0.74285274  0.18096512     0.16400
H1555       H  0.61625689  0.88528462  0.30917741     0.16500
H1556       H  0.61882314  0.73060697  0.30261394     0.16400
O1557       O  0.95154445  0.52281317  0.02880960    -0.88100
C1558       C  0.93228196  0.93859991  0.44014843     0.87900
Mg1559     Mg  0.00150524  0.58984941  0.02709289     1.58100
O1560       O  0.97921735  0.92612410  0.02557631    -0.87800
O1561       O  0.92548774  0.96500005  0.06447833    -0.75100
C1562       C  0.67870274  0.59086641  0.49102231     0.93000
O1563       O  0.96788373  0.54507425  0.43675595    -0.75000
O1564       O  0.66104746  0.61226925  0.48125739    -0.82500
Mg1565     Mg  0.91214506  0.00010974  0.47685513     1.58000
C1566       C  0.58961767  0.91422270  0.00681112     0.92900
O1567       O  0.84795732  0.95477152  0.00620295    -0.80700
H1568       H  0.97607855  0.91139169  0.08170654    -0.06100
C1569       C  0.56617307  0.49788208  0.43959503     0.87900
O1570       O  0.54657985  0.57893813  0.06571372    -0.75200
O1571       O  0.92817322  0.95013323  0.47257847    -0.88000
O1572       O  0.55018893  0.89523919  0.99741250    -0.80800
C1573       C  0.91190474  0.82484176  0.48736122     0.93000
C1574       C  0.82582531  0.91408986  0.00977997     0.92900
Mg1575     Mg  0.59157978  0.50386346  0.02432503     1.58000
O1576       O  0.65709441  0.55096278  0.49896603    -0.80700
O1577       O  0.53501178  0.95782695  0.06312080    -0.75000
O1578       O  0.89321772  0.84614543  0.49327150    -0.80800
O1579       O  0.89452860  0.55169735  0.48443411    -0.82500
O1580       O  0.61018381  0.65803767  0.00122394    -0.80800
C1581       C  0.49572512  0.93045884  0.05763348     0.87300
O1582       O  0.57575615  0.55379416  0.02694199    -0.88000
O1583       O  0.55345641  0.98061425  0.47143833    -0.88100
O1584       O  0.57952663  0.53752872  0.43483531    -0.75100
Mg1585     Mg  0.91278036  0.90966026  0.02332696     1.58000
O1586       O  0.95174662  0.84298756  0.47926946    -0.82500
H1587       H  0.94164113  0.52380321  0.08562377    -0.06200
O1588       O  0.52453125  0.57626407  0.47342797    -0.87800
H1589       H  0.52685681  0.59037420  0.41719130    -0.06100
H1590       H  0.59196309  0.56506723  0.08274184    -0.06200
C1591       C  0.00748096  0.57183979  0.44159912     0.87300
C1592       C  0.93954147  0.00495320  0.06056767     0.87900
C1593       C  0.57275710  0.56615969  0.05929661     0.87900
H1594       H  0.56504332  0.97869361  0.41515155    -0.06200
O1595       O  0.95833686  0.92546892  0.43419196    -0.75300
Mg1596     Mg  0.59103606  0.59314603  0.47476926     1.58000
H1597       H  0.91391224  0.94038325  0.41629565    -0.06200
C1598       C  0.91643187  0.59112570  0.49387528     0.92900
O1599       O  0.55237968  0.65994186  0.02060030    -0.82500
C1600       C  0.59149303  0.67864129  0.01006459     0.93000
O1601       O  0.84306221  0.89146817  0.01597151    -0.82500
Mg1602     Mg  0.50330866  0.91352885  0.47254293     1.58200
O1603       O  0.95603044  0.60928020  0.50203906    -0.80800
O1604       O  0.61017497  0.95328054  0.01745201    -0.82500
O1605       O  0.97818400  0.55210521  0.22004879    -0.88100
C1606       C  0.56428889  0.57372986  0.30710389     0.87900
Mg1607     Mg  0.91144474  0.50225835  0.22311743     1.58100
O1608       O  0.57408248  0.52397070  0.22232028    -0.87800
O1609       O  0.53438875  0.57736189  0.18267953    -0.75100
C1610       C  0.91235324  0.82542316  0.26324304     0.93000
O1611       O  0.95794301  0.53757448  0.31235913    -0.75000
O1612       O  0.88999436  0.84283647  0.27017616    -0.82500
Mg1613     Mg  0.50240608  0.59259241  0.27117590     1.58000
C1614       C  0.59002904  0.91676178  0.24504474     0.92900
O1615       O  0.54735273  0.65608895  0.24108348    -0.80700
H1616       H  0.58606230  0.52440708  0.16579310    -0.06100
C1617       C  0.00494352  0.93992322  0.31147928     0.87900
O1618       O  0.92218226  0.95590031  0.18581656    -0.75200
O1619       O  0.55200881  0.57647411  0.27460315    -0.88000
O1620       O  0.60856950  0.95698408  0.25091171    -0.80800
C1621       C  0.67663194  0.59350390  0.25849419     0.93000
C1622       C  0.58782342  0.67774874  0.23635578     0.92900
Mg1623     Mg  0.99788373  0.91108360  0.22873279     1.58000
O1624       O  0.95296000  0.84742570  0.25919718    -0.80700
O1625       O  0.54167253  0.96598851  0.18728442    -0.75000
O1626       O  0.65535536  0.61139425  0.24956119    -0.80800
O1627       O  0.95184217  0.61108337  0.26400294    -0.82500
O1628       O  0.84303809  0.89363743  0.25088616    -0.80800
C1629       C  0.56848984  0.00582154  0.19089990     0.87300
O1630       O  0.94728750  0.92653760  0.22470620    -0.88000
O1631       O  0.52188883  0.95186005  0.27940238    -0.88100
O1632       O  0.96517642  0.92588868  0.31624312    -0.75100
Mg1633     Mg  0.59066128  0.59047691  0.22254075     1.58000
O1634       O  0.65863637  0.55428267  0.26887158    -0.82500
H1635       H  0.97506300  0.56147647  0.16340254    -0.06200
O1636       O  0.92548841  0.97989082  0.27701957    -0.87800
H1637       H  0.91289244  0.97917877  0.33342187    -0.06100
H1638       H  0.93600963  0.91039234  0.16889309    -0.06200
C1639       C  0.93086523  0.49784814  0.30849369     0.87300
C1640       C  0.49477235  0.56371204  0.18781114     0.87900
C1641       C  0.93500807  0.92967918  0.19231155     0.87900
H1642       H  0.52439032  0.94197004  0.33603676    -0.06200
O1643       O  0.57728205  0.54774771  0.31394370    -0.75300
Mg1644     Mg  0.90861917  0.91303296  0.27671690     1.58000
H1645       H  0.56295165  0.59302835  0.33034025    -0.06200
C1646       C  0.91243139  0.58973500  0.25481117     0.92900
O1647       O  0.84130589  0.95139540  0.23054506    -0.82500
C1648       C  0.82248923  0.91234723  0.24160144     0.93000
O1649       O  0.60970867  0.66014311  0.22874178    -0.82500
Mg1650     Mg  0.58876635  0.00240640  0.27619461     1.58200
O1651       O  0.89342297  0.54980685  0.24713929    -0.80800
O1652       O  0.55021724  0.89428722  0.23710255    -0.82500
C1653       C  0.69556051  0.87052635  0.35316257    -0.26100
C1654       C  0.66389821  0.83402737  0.33333229    -0.14100
C1655       C  0.62895327  0.80338576  0.35615328     0.36500
C1656       C  0.63177213  0.80445192  0.39701067    -0.25500
C1657       C  0.66707773  0.83767417  0.41692527    -0.14700
C1658       C  0.69613003  0.87388926  0.39391246     0.37600
N1659       N  0.72305571  0.91606374  0.40977952    -0.89000
H1660       H  0.71856913  0.89838261  0.33673131     0.18700
H1661       H  0.60455762  0.78019361  0.41321687     0.18700
N1662       N  0.58890542  0.77343635  0.33857467    -0.88000
H1663       H  0.75518018  0.92463995  0.40636684     0.36100
H1664       H  0.71657951  0.91796779  0.43882688     0.41200
H1665       H  0.56572159  0.78046240  0.34828052     0.40800
H1666       H  0.57983575  0.74260169  0.34865018     0.35700
C1667       C  0.69326780  0.82582424  0.14656187    -0.26100
C1668       C  0.66353904  0.83380906  0.16539116    -0.14100
C1669       C  0.62709795  0.82623876  0.14410913     0.36500
C1670       C  0.62908859  0.82652540  0.10398769    -0.25500
C1671       C  0.66578596  0.83181280  0.08488156    -0.14700
C1672       C  0.69381662  0.82300913  0.10660998     0.37600
N1673       N  0.71913228  0.80630234  0.09038085    -0.89000
H1674       H  0.71441035  0.81872286  0.16299418     0.18700
H1675       H  0.60088635  0.82044212  0.08793629     0.18700
N1676       N  0.58700457  0.81416842  0.16266831    -0.88000
H1677       H  0.75165214  0.82827918  0.09524318     0.36100
H1678       H  0.71418609  0.80007890  0.06089664     0.41200
H1679       H  0.56461510  0.78284308  0.15407915     0.40800
H1680       H  0.57616713  0.83428676  0.15238721     0.35700
C1681       C  0.80785627  0.62714602  0.39569763    -0.26100
C1682       C  0.83962510  0.66379708  0.41493577    -0.14100
C1683       C  0.87698960  0.69236303  0.39339738     0.36500
C1684       C  0.87404747  0.69211420  0.35339826    -0.25500
C1685       C  0.83606728  0.66250234  0.33448597    -0.14700
C1686       C  0.80652201  0.62544717  0.35545388     0.37600
N1687       N  0.77703505  0.58594006  0.33628528    -0.89000
H1688       H  0.78505879  0.59904977  0.41192930     0.18700
H1689       H  0.90237705  0.71421100  0.33699960     0.18700
N1690       N  0.91891442  0.71889431  0.41004192    -0.90200
H1691       H  0.75745198  0.56221487  0.35631955     0.36100
H1692       H  0.79503103  0.57467942  0.32225715     0.41200
H1693       H  0.91963095  0.71455873  0.43972577     0.40800
H1694       H  0.92906140  0.75119760  0.40461039     0.35700
C1695       C  0.82569849  0.63213170  0.14602340    -0.26100
C1696       C  0.83141283  0.66844530  0.16656110    -0.14100
C1697       C  0.82838430  0.69997846  0.14435410     0.36500
C1698       C  0.83084292  0.69978015  0.10333976    -0.25500
C1699       C  0.83273322  0.66691978  0.08292149    -0.14700
C1700       C  0.82500175  0.63052530  0.10510429     0.37600
N1701       N  0.81374658  0.59074939  0.08650384    -0.89000
H1702       H  0.81998248  0.60373840  0.16173962     0.18700
H1703       H  0.82829416  0.72409496  0.08734634     0.18700
N1704       N  0.81993194  0.73044890  0.16302606    -0.88000
H1705       H  0.83442635  0.58053456  0.09651300     0.36100
H1706       H  0.78266701  0.56779924  0.09535020     0.41200
H1707       H  0.78966458  0.71321567  0.17608844     0.40800
H1708       H  0.81819320  0.75110364  0.14280229     0.35700
C1709       C  0.83558467  0.66777939  0.53783437     0.30300
C1710       C  0.83666128  0.66614598  0.95831689     0.30300
C1711       C  0.86110666  0.64822747  0.51871859    -0.05900
C1712       C  0.79113162  0.64250581  0.51734049    -0.06700
C1713       C  0.85618571  0.71247951  0.51656223    -0.06600
C1714       C  0.85996537  0.64691823  0.97852548    -0.05900
C1715       C  0.79230324  0.64271292  0.97695031    -0.06700
C1716       C  0.85516375  0.71057580  0.97613378    -0.06600
C1717       C  0.88040834  0.62628052  0.96529946    -0.32000
N1718       N  0.89575871  0.61580016  0.99608479     0.14500
C1719       C  0.88523068  0.62949239  0.52887016    -0.32000
H1720       H  0.89384255  0.62525615  0.55778786     0.16500
C1721       C  0.75110316  0.62557409  0.96342676    -0.31000
N1722       N  0.72437779  0.61227951  0.49398241     0.13300
C1723       C  0.74796050  0.62247631  0.52717383    -0.30900
C1724       C  0.87291075  0.75148573  0.96142552    -0.31200
N1725       N  0.88746278  0.77907140  0.49122388     0.13800
H1726       H  0.87575785  0.76081343  0.93133403     0.16400
C1727       C  0.87786987  0.75625286  0.52496235    -0.31200
H1728       H  0.88743139  0.77078788  0.55323546     0.16400
H1729       H  0.73478319  0.61716694  0.55613923     0.16400
H1730       H  0.88365908  0.61906953  0.93553147     0.16500
H1731       H  0.74091987  0.62362424  0.93371797     0.16400
C1732       C  0.83373408  0.66905864  0.71168671     0.30300
C1733       C  0.83381853  0.66576816  0.79117616     0.30300
C1734       C  0.85465420  0.64463878  0.73054144    -0.05900
C1735       C  0.85866851  0.71347152  0.73319571    -0.06700
C1736       C  0.78912009  0.64773974  0.73222668    -0.06600
C1737       C  0.85409706  0.64359434  0.77075459    -0.05900
C1738       C  0.85692490  0.71083156  0.77362555    -0.06700
C1739       C  0.78989626  0.64685606  0.77258371    -0.06600
C1740       C  0.87521564  0.62349156  0.78369596    -0.32000
N1741       N  0.88866103  0.61134631  0.75264346     0.14500
C1742       C  0.87708065  0.62423018  0.71995817    -0.32000
H1743       H  0.88552240  0.62005810  0.69091837     0.16500
C1744       C  0.87529668  0.75162699  0.78859989    -0.31000
N1745       N  0.89123063  0.77972357  0.75907865     0.13300
C1746       C  0.88214974  0.75742686  0.72520174    -0.30900
C1747       C  0.74873017  0.62962907  0.78620433    -0.31200
N1748       N  0.72231112  0.61800769  0.75563038     0.13800
H1749       H  0.73831993  0.62552918  0.81606320     0.16400
C1750       C  0.74613288  0.62909004  0.72241979    -0.31200
H1751       H  0.73309676  0.62332890  0.69344895     0.16400
H1752       H  0.89143507  0.77237823  0.69696783     0.16400
H1753       H  0.88078542  0.61834150  0.81347472     0.16500
H1754       H  0.87670165  0.76056570  0.81864697     0.16400
C1755       C  0.66776077  0.83597335  0.54146357     0.30300
C1756       C  0.66832964  0.83635940  0.96199238     0.30300
C1757       C  0.64584429  0.85783376  0.52242277    -0.05900
C1758       C  0.71199155  0.86020559  0.52279289    -0.06700
C1759       C  0.64636951  0.79232029  0.52246774    -0.06600
C1760       C  0.64489635  0.85736568  0.98208440    -0.05900
C1761       C  0.71325038  0.85911456  0.98245483    -0.06700
C1762       C  0.64681144  0.79130609  0.98224448    -0.06600
C1763       C  0.62249985  0.87763992  0.97167317    -0.32000
N1764       N  0.61180440  0.89102223  0.50450268     0.14500
C1765       C  0.62701182  0.88032605  0.53536046    -0.32000
H1766       H  0.62449474  0.88872668  0.56487492     0.16500
C1767       C  0.75669598  0.87878897  0.97323565    -0.31000
N1768       N  0.78016364  0.89325447  0.50642094     0.13300
C1769       C  0.75319417  0.88302604  0.53658992    -0.30900
C1770       C  0.62746966  0.74782386  0.97321497    -0.31200
N1771       N  0.61492130  0.72436606  0.50670327     0.13800
H1772       H  0.62252714  0.73402296  0.94461909     0.16400
C1773       C  0.62602690  0.75125923  0.53682420    -0.31200
H1774       H  0.62013593  0.74155792  0.56692339     0.16400
H1775       H  0.76310335  0.89105538  0.56636760     0.16400
H1776       H  0.61533965  0.88308544  0.94254259     0.16500
H1777       H  0.77031244  0.88158119  0.94477035     0.16400
C1778       C  0.66463130  0.83620252  0.70884570     0.30300
C1779       C  0.66428755  0.83348236  0.78826509     0.30300
C1780       C  0.64538081  0.85995994  0.72867339    -0.05900
C1781       C  0.64086131  0.79184166  0.72674423    -0.06700
C1782       C  0.70873858  0.85690648  0.72773003    -0.06600
C1783       C  0.64404507  0.85826496  0.76902249    -0.05900
C1784       C  0.64080771  0.78922641  0.76692986    -0.06700
C1785       C  0.70941121  0.85486136  0.76804339    -0.06600
C1786       C  0.62412313  0.88092199  0.77996253    -0.32000
N1787       N  0.61482182  0.89616382  0.74741416     0.14500
C1788       C  0.62894876  0.88474788  0.71628648    -0.32000
H1789       H  0.62697095  0.89379558  0.68685779     0.16500
C1790       C  0.62184736  0.74543417  0.77470122    -0.31000
N1791       N  0.60933361  0.72328406  0.74073353     0.13300
C1792       C  0.62117976  0.75134868  0.71130769    -0.30900
C1793       C  0.75270735  0.87423121  0.77760647    -0.31200
N1794       N  0.77668710  0.88889882  0.74454779     0.13800
H1795       H  0.76595840  0.87817482  0.80635613     0.16400
C1796       C  0.75022758  0.87963594  0.71427158    -0.31200
H1797       H  0.76080709  0.88899259  0.68470604     0.16400
H1798       H  0.61666197  0.74285294  0.68096505     0.16400
H1799       H  0.61625693  0.88528475  0.80917748     0.16500
H1800       H  0.61882305  0.73060682  0.80261391     0.16400
O1801       O  0.95154441  0.52281313  0.52880963    -0.88100
C1802       C  0.93228197  0.93859992  0.94014841     0.87900
Mg1803     Mg  0.00150521  0.58984938  0.52709290     1.58100
O1804       O  0.97921737  0.92612419  0.52557639    -0.87800
O1805       O  0.92548781  0.96500016  0.56447837    -0.75100
C1806       C  0.67870275  0.59086639  0.99102234     0.93000
O1807       O  0.96788374  0.54507429  0.93675594    -0.75000
O1808       O  0.66104753  0.61226930  0.98125746    -0.82500
Mg1809     Mg  0.91214502  0.00010974  0.97685515     1.58000
C1810       C  0.58961775  0.91422281  0.50681111     0.92900
O1811       O  0.84795733  0.95477156  0.50620279    -0.80700
H1812       H  0.97607856  0.91139170  0.58170663    -0.06100
C1813       C  0.56617316  0.49788215  0.93959504     0.87900
O1814       O  0.54657994  0.57893817  0.56571371    -0.75200
O1815       O  0.92817319  0.95013326  0.97257844    -0.88000
O1816       O  0.55018904  0.89523933  0.49741234    -0.80800
C1817       C  0.91190482  0.82484180  0.98736113     0.93000
C1818       C  0.82582535  0.91408988  0.50977988     0.92900
Mg1819     Mg  0.59157979  0.50386347  0.52432507     1.58000
O1820       O  0.65709440  0.55096278  0.99896604    -0.80700
O1821       O  0.53501175  0.95782684  0.56312090    -0.75000
O1822       O  0.89321778  0.84614549  0.99327133    -0.80800
O1823       O  0.89452874  0.55169741  0.98443420    -0.82500
O1824       O  0.61018375  0.65803771  0.50122379    -0.80800
C1825       C  0.49572506  0.93045881  0.55763355     0.87300
O1826       O  0.57575613  0.55379409  0.52694197    -0.88000
O1827       O  0.55345638  0.98061426  0.97143825    -0.88100
O1828       O  0.57952674  0.53752881  0.93483536    -0.75100
Mg1829     Mg  0.91278038  0.90966030  0.52332701     1.58000
O1830       O  0.95174674  0.84298760  0.97926954    -0.82500
H1831       H  0.94164102  0.52380312  0.58562387    -0.06200
O1832       O  0.52453128  0.57626409  0.97342794    -0.87800
H1833       H  0.52685692  0.59037418  0.91719129    -0.06100
H1834       H  0.59196303  0.56506697  0.58274179    -0.06200
C1835       C  0.00748100  0.57183984  0.94159907     0.87300
C1836       C  0.93954158  0.00495329  0.56056773     0.87900
C1837       C  0.57275712  0.56615962  0.55929658     0.87900
H1838       H  0.56504335  0.97869379  0.91515145    -0.06200
O1839       O  0.95833679  0.92546881  0.93419207    -0.75300
Mg1840     Mg  0.59103612  0.59314608  0.97476929     1.58000
H1841       H  0.91391235  0.94038326  0.91629557    -0.06200
C1842       C  0.91643194  0.59112577  0.99387530     0.92900
O1843       O  0.55237970  0.65994189  0.52060039    -0.82500
C1844       C  0.59149301  0.67864133  0.51006456     0.93000
O1845       O  0.84306227  0.89146823  0.51597144    -0.82500
Mg1846     Mg  0.50330865  0.91352881  0.97254298     1.58200
O1847       O  0.95603052  0.60928034  0.00203909    -0.80800
O1848       O  0.61017501  0.95328060  0.51745213    -0.82500
O1849       O  0.97818403  0.55210533  0.72004872    -0.88100
C1850       C  0.56428893  0.57372999  0.80710389     0.87900
Mg1851     Mg  0.91144479  0.50225835  0.72311742     1.58100
O1852       O  0.57408243  0.52397072  0.72232036    -0.87800
O1853       O  0.53438880  0.57736198  0.68267944    -0.75100
C1854       C  0.91235322  0.82542315  0.76324309     0.93000
O1855       O  0.95794303  0.53757460  0.81235915    -0.75000
O1856       O  0.88999434  0.84283646  0.77017625    -0.82500
Mg1857     Mg  0.50240614  0.59259247  0.77117589     1.58000
C1858       C  0.59002907  0.91676185  0.74504477     0.92900
O1859       O  0.54735276  0.65608902  0.74108338    -0.80700
H1860       H  0.58606224  0.52440710  0.66579320    -0.06100
C1861       C  0.00494360  0.93992328  0.81147922     0.87900
O1862       O  0.92218233  0.95590038  0.68581671    -0.75200
O1863       O  0.55200887  0.57647419  0.77460312    -0.88000
O1864       O  0.60856951  0.95698414  0.75091176    -0.80800
C1865       C  0.67663191  0.59350387  0.75849423     0.93000
C1866       C  0.58782345  0.67774881  0.73635566     0.92900
Mg1867     Mg  0.99788376  0.91108355  0.72873285     1.58000
O1868       O  0.95296001  0.84742569  0.75919731    -0.80700
O1869       O  0.54167250  0.96598853  0.68728450    -0.75000
O1870       O  0.65535539  0.61139425  0.74956113    -0.80800
O1871       O  0.95184214  0.61108330  0.76400313    -0.82500
O1872       O  0.84303810  0.89363748  0.75088629    -0.80800
C1873       C  0.56848983  0.00582158  0.69090000     0.87300
O1874       O  0.94728742  0.92653746  0.72470630    -0.88000
O1875       O  0.52188881  0.95186009  0.77940230    -0.88100
O1876       O  0.96517650  0.92588877  0.81624302    -0.75100
Mg1877     Mg  0.59066129  0.59047696  0.72254072     1.58000
O1878       O  0.65863629  0.55428267  0.76887166    -0.82500
H1879       H  0.97506304  0.56147651  0.66340243    -0.06200
O1880       O  0.92548832  0.97989077  0.77701966    -0.87800
H1881       H  0.91289247  0.97917886  0.83342198    -0.06100
H1882       H  0.93600967  0.91039244  0.66889314    -0.06200
C1883       C  0.93086531  0.49784824  0.80849372     0.87300
C1884       C  0.49477239  0.56371212  0.68781107     0.87900
C1885       C  0.93500806  0.92967919  0.69231166     0.87900
H1886       H  0.52439037  0.94197015  0.83603665    -0.06200
O1887       O  0.57728203  0.54774780  0.81394373    -0.75300
Mg1888     Mg  0.90861912  0.91303291  0.77671701     1.58000
H1889       H  0.56295167  0.59302852  0.83034020    -0.06200
C1890       C  0.91243140  0.58973496  0.75481123     0.92900
O1891       O  0.84130597  0.95139548  0.73054514    -0.82500
C1892       C  0.82248926  0.91234730  0.74160149     0.93000
O1893       O  0.60970870  0.66014318  0.72874167    -0.82500
Mg1894     Mg  0.58876633  0.00240642  0.77619462     1.58200
O1895       O  0.89342303  0.54980685  0.74713913    -0.80800
O1896       O  0.55021725  0.89428727  0.73710264    -0.82500
C1897       C  0.69556048  0.87052638  0.85316260    -0.26100
C1898       C  0.66389823  0.83402742  0.83333230    -0.14100
C1899       C  0.62895326  0.80338582  0.85615324     0.36500
C1900       C  0.63177208  0.80445195  0.89701064    -0.25500
C1901       C  0.66707771  0.83767417  0.91692525    -0.14700
C1902       C  0.69613000  0.87388930  0.89391248     0.37600
N1903       N  0.72305571  0.91606378  0.90977959    -0.89000
H1904       H  0.71856910  0.89838265  0.83673131     0.18700
H1905       H  0.60455758  0.78019363  0.91321681     0.18700
N1906       N  0.58890545  0.77343641  0.83857458    -0.88000
H1907       H  0.75518018  0.92464003  0.90636692     0.36100
H1908       H  0.71657958  0.91796777  0.93882698     0.41200
H1909       H  0.56572158  0.78046239  0.84828045     0.40800
H1910       H  0.57983581  0.74260172  0.84864999     0.35700
C1911       C  0.69326775  0.82582421  0.64656191    -0.26100
C1912       C  0.66353906  0.83380907  0.66539122    -0.14100
C1913       C  0.62709806  0.82623881  0.64410916     0.36500
C1914       C  0.62908865  0.82652534  0.60398776    -0.25500
C1915       C  0.66578601  0.83181280  0.58488160    -0.14700
C1916       C  0.69381667  0.82300917  0.60661003     0.37600
N1917       N  0.71913235  0.80630242  0.59038093    -0.89000
H1918       H  0.71441026  0.81872273  0.66299427     0.18700
H1919       H  0.60088635  0.82044198  0.58793640     0.18700
N1920       N  0.58700467  0.81416851  0.66266831    -0.88000
H1921       H  0.75165220  0.82827930  0.59524327     0.36100
H1922       H  0.71418615  0.80007904  0.56089672     0.41200
H1923       H  0.56461524  0.78284313  0.65407917     0.40800
H1924       H  0.57616721  0.83428680  0.65238710     0.35700
C1925       C  0.80785625  0.62714604  0.89569763    -0.26100
C1926       C  0.83962511  0.66379706  0.91493581    -0.14100
C1927       C  0.87698958  0.69236300  0.89339737     0.36500
C1928       C  0.87404740  0.69211419  0.85339831    -0.25500
C1929       C  0.83606722  0.66250236  0.83448600    -0.14700
C1930       C  0.80652198  0.62544720  0.85545391     0.37600
N1931       N  0.77703503  0.58594008  0.83628532    -0.89000
H1932       H  0.78505875  0.59904975  0.91192923     0.18700
H1933       H  0.90237700  0.71421104  0.83699964     0.18700
N1934       N  0.91891443  0.71889432  0.91004185    -0.90200
H1935       H  0.75745204  0.56221485  0.85631962     0.36100
H1936       H  0.79503103  0.57467947  0.82225712     0.41200
H1937       H  0.91963099  0.71455888  0.93972573     0.40800
H1938       H  0.92906133  0.75119758  0.90461027     0.35700
C1939       C  0.82569848  0.63213170  0.64602342    -0.26100
C1940       C  0.83141283  0.66844531  0.66656114    -0.14100
C1941       C  0.82838432  0.69997853  0.64435417     0.36500
C1942       C  0.83084295  0.69978025  0.60333980    -0.25500
C1943       C  0.83273323  0.66691985  0.58292150    -0.14700
C1944       C  0.82500172  0.63052533  0.60510430     0.37600
N1945       N  0.81374654  0.59074943  0.58650381    -0.89000
H1946       H  0.81998249  0.60373841  0.66173961     0.18700
H1947       H  0.82829417  0.72409505  0.58734641     0.18700
N1948       N  0.81993196  0.73044895  0.66302616    -0.88000
H1949       H  0.83442636  0.58053464  0.59651292     0.36100
H1950       H  0.78266698  0.56779922  0.59535013     0.41200
H1951       H  0.78966458  0.71321575  0.67608848     0.40800
H1952       H  0.81819333  0.75110377  0.64280242     0.35700
loop_ 
_geom_bond_atom_site_label_1 
_geom_bond_atom_site_label_2 
_geom_bond_distance 
_geom_bond_site_symmetry_2 
_ccdc_geom_bond_type 
C1            C3   1.564       .  S
C1            C5   1.571       .  S
C1            C4   1.559       .  S
C1          C235   1.561       .  S
C2            C6   1.507       .  S
C2            C8   1.521       .  S
C2            C7   1.522       .  S
C2          C218   1.509       .  S
C3           C11   1.392       .  A
C3          C250   1.391   1_554  A
C4           C15   1.386       .  A
C4          C251   1.397   1_554  A
C5           C19   1.392       .  A
C5          C252   1.399   1_554  A
C6            C9   1.366       .  A
C6          C247   1.391       .  A
C7           C13   1.373       .  A
C7          C248   1.397       .  A
C8           C16   1.372       .  A
C8          C249   1.399       .  A
C9           N10   1.340       .  A
C9           H22   1.083       .  S
N10         C255   1.366       .  A
N10         C134   1.425       .  S
C11         N254   1.366   1_554  A
C11          H12   1.081       .  S
C13         N258   1.343       .  A
C13          H23   1.082       .  S
N14          C15   1.366   1_556  A
N14         C257   1.343       .  A
N14         C342   1.427       .  S
C15          H21   1.082       .  S
C16         N261   1.343       .  A
C16          H18   1.081       .  S
N17          C19   1.365   1_556  A
N17         C260   1.343       .  A
N17         C353   1.429       .  S
C19          H20   1.081       .  S
C24          C26   1.564       .  S
C24          C28   1.558       .  S
C24          C27   1.572       .  S
C24         C232   1.562       .  S
C25          C29   1.507       .  S
C25          C31   1.517       .  S
C25          C30   1.524       .  S
C25         C221   1.507       .  S
C26          C34   1.392       .  A
C26          C29   1.391       .  A
C27          C38   1.393       .  A
C27          C30   1.400       .  A
C28          C42   1.386       .  A
C28          C31   1.396       .  A
C29          C32   1.367       .  A
C30          C36   1.373       .  A
C31          C39   1.370       .  A
C32          N33   1.341       .  A
C32          H45   1.083       .  S
N33          C34   1.365       .  A
N33         C182   1.425       .  S
C34          H35   1.082       .  S
C36          N37   1.342       .  A
C36          H46   1.082       .  S
N37          C38   1.365       .  A
N37         C146   1.430       .  S
C38          H44   1.081       .  S
C39          N40   1.343       .  A
C39          H41   1.082       .  S
N40          C42   1.365       .  A
N40         C157   1.425       .  S
C42          H43   1.082       .  S
C47          C49   1.521       .  S
C47          C51   1.509       .  S
C47          C50   1.520       .  S
C47         C207   1.506       .  S
C48          C52   1.557       .  S
C48          C54   1.564       .  S
C48          C53   1.569       .  S
C48         C193   1.560       .  S
C49          C57   1.372       .  A
C49         C296   1.395   1_554  A
C50          C61   1.371       .  A
C50         C297   1.397   1_554  A
C51          C65   1.367       .  A
C51         C298   1.392   1_554  A
C52          C55   1.385       .  A
C52         C293   1.395       .  A
C53          C59   1.391       .  A
C53         C294   1.397       .  A
C54          C62   1.391       .  A
C54         C295   1.392       .  A
C55         N300   1.364       .  A
C55          H68   1.082       .  S
N56          C57   1.343       .  A
N56         C299   1.364   1_554  A
N56         C102   1.425       .  S
C57          H58   1.082       .  S
C59         N304   1.365       .  A
C59          H69   1.081       .  S
N60          C61   1.343       .  A
N60         C303   1.365   1_554  A
N60         C110   1.429       .  S
C61          H67   1.081       .  S
C62         N307   1.366       .  A
C62          H64   1.082       .  S
N63          C65   1.341       .  A
N63         C306   1.366   1_554  A
N63         C136   1.425       .  S
C65          H66   1.083       .  S
C70          C72   1.515       .  S
C70          C74   1.523       .  S
C70          C73   1.509       .  S
C70         C204   1.505       .  S
C71          C75   1.562       .  S
C71          C77   1.568       .  S
C71          C76   1.563       .  S
C71         C190   1.559       .  S
C72          C80   1.368       .  A
C72          C75   1.396       .  A
C73          C84   1.369       .  A
C73          C76   1.392       .  A
C74          C88   1.372       .  A
C74          C77   1.397       .  A
C75          C78   1.388       .  A
C76          C82   1.391       .  A
C77          C85   1.391       .  A
C78          N79   1.366       .  A
C78          H91   1.082       .  S
N79          C80   1.342       .  A
N79         C150   1.427       .  S
C80          H81   1.081       .  S
C82          N83   1.364       .  A
C82          H92   1.080       .  S
N83          C84   1.340       .  A
N83         C158   1.425       .  S
C84          H90   1.083       .  S
C85          N86   1.366       .  A
C85          H87   1.082       .  S
N86          C88   1.342       .  A
N86         C184   1.429       .  S
C88          H89   1.082       .  S
O93         Mg95   2.162       .  S
O93        Mg833   2.180   1_554  S
O93         C616   1.233       .  S
C94         H133   1.081       .  S
C94         O107   1.232       .  S
C94         O131   1.267       .  A
Mg95       O1344   2.188   1_554  S
Mg95        O383   2.260       .  S
Mg95       O1111   2.257       .  S
Mg95       O1082   2.290       .  S
O96        Mg121   2.161       .  S
O96       Mg1358   2.174   1_554  S
O96        C1093   1.232       .  S
O97         C128   1.268       .  A
O97        Mg121   2.303       .  S
C98         N258   1.427       .  S
C98         O100   1.271       .  A
C98         O112   1.270       .  A
O99         C127   1.267       .  A
O99        Mg589   2.296       .  S
O100       Mg132   2.270       .  S
Mg101       O107   2.160       .  S
Mg101       O825   2.180       .  S
Mg101       O587   2.296       .  S
Mg101       O603   2.267       .  S
Mg101       O347   2.283       .  S
C102        O140   1.270       .  A
C102        O108   1.271   1_554  A
O103        C110   1.271       .  A
O103       Mg345   2.283   1_554  S
H104       C1093   1.081       .  S
C105        H618   1.081       .  S
C105        O607   1.231       .  S
C105        O120   1.266   1_565  A
O106        C129   1.264       .  A
O106      Mg1071   2.290       .  S
O107       Mg365   2.163       .  S
O108       Mg382   2.275       .  S
C109        N261   1.429       .  S
C109        O122   1.272       .  A
C109        O114   1.271       .  A
C110        O137   1.271       .  A
Mg111       O118   2.150       .  S
Mg111       O851   2.188   1_544  S
Mg111       O356   2.271   1_554  S
Mg111       O601   2.295   1_545  S
Mg111       O628   2.254   1_545  S
O112       Mg355   2.271       .  S
O113        C117   1.266   1_455  A
O113       Mg599   2.295       .  S
O114       Mg365   2.280       .  S
O115        C134   1.271       .  A
O115       Mg589   2.267       .  S
O116        C136   1.269       .  A
O116       Mg376   2.272   1_554  S
C117       H1080   1.081       .  S
C117       O1072   1.232       .  S
O118       Mg376   2.182   1_554  S
O118        C129   1.230       .  S
O119       Mg138   2.165       .  S
O119       Mg843   2.188       .  S
O119        C593   1.231       .  S
O120       Mg132   2.296       .  S
Mg121       O351   2.163   1_554  S
Mg121       O137   2.272       .  S
Mg121       O358   2.280   1_554  S
O122      Mg1114   2.276       .  S
H123        C616   1.081       .  S
O124       Mg132   2.158       .  S
O124      Mg1315   2.188       .  S
O124       C1103   1.232       .  S
H125       C1103   1.081       .  S
H126        C129   1.081       .  S
C127       H1101   1.081       .  S
C127       O1100   1.232       .  S
C128        H611   1.081       .  S
C128        O581   1.233       .  S
H130        C593   1.081       .  S
O131      Mg1114   2.301       .  S
Mg132       O362   2.182       .  S
Mg132       O360   2.272       .  S
C134        O139   1.267       .  A
O135        C136   1.270       .  A
O135      Mg1071   2.257       .  S
Mg138      O1316   2.174   1_455  S
Mg138       O352   2.275       .  S
Mg138      O1098   2.276   1_455  S
Mg138      O1107   2.301   1_455  S
O139       Mg339   2.260       .  S
O140       Mg599   2.254       .  S
O141       Mg143   2.157       .  S
O141      Mg1125   2.178       .  S
O141       C1152   1.232       .  S
C142        H181   1.081       .  S
C142        O155   1.231       .  S
C142        O179   1.265       .  A
Mg143       O660   2.189   1_545  S
Mg143       O187   2.279       .  S
Mg143       O671   2.264   1_545  S
Mg143       O642   2.297   1_545  S
O144       Mg169   2.157       .  S
O144       Mg674   2.184       .  S
O144        C653   1.233       .  S
O145        C176   1.267   1_455  A
O145       Mg169   2.300       .  S
C146        O148   1.273       .  A
C146        O160   1.272       .  A
O147        C175   1.267   1_545  A
O147      Mg1125   2.299       .  S
O148       Mg180   2.278       .  S
Mg149       O155   2.149       .  S
Mg149      O1117   2.178   1_455  S
Mg149       O151   2.274       .  S
Mg149      O1123   2.299   1_455  S
Mg149      O1139   2.254   1_455  S
C150        O188   1.272       .  A
C150        O156   1.269       .  A
O151        C158   1.270       .  A
H152        C653   1.081       .  S
C153       H1154   1.081       .  S
C153       O1143   1.232       .  S
C153        O168   1.268       .  A
O154        C177   1.266       .  A
O154       Mg631   2.297       .  S
O155       Mg169   2.172       .  S
O156       Mg186   2.270       .  S
C157        O170   1.271       .  A
C157        O162   1.267       .  A
C158        O185   1.268       .  A
Mg159       O166   2.169       .  S
Mg159      O1143   2.169       .  S
Mg159       O160   2.283       .  S
Mg159      O1137   2.297       .  S
Mg159      O1164   2.278       .  S
O161        C165   1.267       .  A
O161      Mg1135   2.297   1_455  S
O162       Mg169   2.263       .  S
O163        C182   1.269       .  A
O163      Mg1125   2.254       .  S
O164        C184   1.272       .  A
O164       Mg180   2.286       .  S
C165        H640   1.081       .  S
C165        O632   1.233       .  S
O166       Mg180   2.172       .  S
O166        C177   1.231       .  S
O167       Mg186   2.167       .  S
O167      Mg1135   2.169   1_455  S
O167       C1129   1.232       .  S
O168       Mg180   2.303       .  S
Mg169       O185   2.254       .  S
O170       Mg674   2.266       .  S
H171       C1152   1.081       .  S
O172       Mg180   2.167       .  S
O172       Mg631   2.189       .  S
O172        C663   1.232       .  S
H173        C663   1.081       .  S
H174        C177   1.081       .  S
C175        H661   1.081       .  S
C175        O660   1.232       .  S
C176       H1147   1.081       .  S
C176       O1117   1.232       .  S
H178       C1129   1.081       .  S
O179       Mg674   2.291       .  S
C182        O187   1.270       .  A
O183        C184   1.271       .  A
O183       Mg631   2.264       .  S
Mg186       O632   2.184       .  S
Mg186       O658   2.266       .  S
Mg186       O667   2.291       .  S
O188      Mg1135   2.278   1_455  S
C189        C190   1.410       .  A
C189        C194   1.414       .  A
C189        H196   1.082       .  S
C190        C191   1.419       .  A
C191        C192   1.416       .  A
C191        N198   1.431       .  S
C192        C193   1.411       .  A
C192        H197   1.081       .  S
C193        C194   1.429       .  A
C194        N195   1.437       .  S
N195        H199   1.044       .  S
N195        H200   1.041       .  S
N198        H201   1.046       .  S
N198        H202   1.046       .  S
C203        C204   1.405       .  A
C203        C208   1.386       .  A
C203        H210   1.082       .  S
C204        C205   1.410       .  A
C205        C206   1.389       .  A
C205        N212   1.433       .  S
C206        C207   1.403       .  A
C206        H211   1.081       .  S
C207        C208   1.421       .  A
C208        N209   1.440       .  S
N209        H213   1.045       .  S
N209        H214   1.040       .  S
N212        H215   1.046       .  S
N212        H216   1.046       .  S
C217        C218   1.405       .  A
C217        C222   1.393       .  A
C217        H224   1.081       .  S
C218        C219   1.421       .  A
C219        C220   1.387       .  A
C219        N226   1.440       .  S
C220        C221   1.403       .  A
C220        H225   1.082       .  S
C221        C222   1.412       .  A
C222        N223   1.439       .  S
N223        H227   1.046       .  S
N223        H228   1.044       .  S
N226        H229   1.040       .  S
N226        H230   1.045       .  S
C231        C232   1.412       .  A
C231        C236   1.416       .  A
C231        H238   1.081       .  S
C232        C233   1.420       .  A
C233        C234   1.421       .  A
C233        N240   1.436       .  S
C234        C235   1.412       .  A
C234        H239   1.078       .  S
C235        C236   1.418       .  A
C236        N237   1.432       .  S
N237        H241   1.045       .  S
N237        H242   1.045       .  S
N240        H243   1.045       .  S
N240        H244   1.045       .  S
C245        C247   1.564       .  S
C245        C249   1.571       .  S
C245        C248   1.559       .  S
C245        C479   1.561       .  S
C246        C250   1.507       .  S
C246        C252   1.521       .  S
C246        C251   1.522       .  S
C246        C462   1.509       .  S
C247        C255   1.392       .  A
C248        C259   1.386       .  A
C249        C263   1.392       .  A
C250        C253   1.366       .  A
C251        C257   1.373       .  A
C252        C260   1.372       .  A
C253        N254   1.340       .  A
C253        H266   1.083       .  S
N254        C378   1.425       .  S
C255        H256   1.081       .  S
C257        H267   1.082       .  S
N258        C259   1.366       .  A
C259        H265   1.082       .  S
C260        H262   1.081       .  S
N261        C263   1.365       .  A
C263        H264   1.081       .  S
C268        C270   1.564       .  S
C268        C272   1.558       .  S
C268        C271   1.572       .  S
C268        C476   1.562       .  S
C269        C273   1.507       .  S
C269        C275   1.517       .  S
C269        C274   1.524       .  S
C269        C465   1.507       .  S
C270        C278   1.392       .  A
C270        C273   1.391       .  A
C271        C282   1.393       .  A
C271        C274   1.400       .  A
C272        C286   1.386       .  A
C272        C275   1.396       .  A
C273        C276   1.367       .  A
C274        C280   1.373       .  A
C275        C283   1.370       .  A
C276        N277   1.341       .  A
C276        H289   1.083       .  S
N277        C278   1.365       .  A
N277        C426   1.425       .  S
C278        H279   1.082       .  S
C280        N281   1.342       .  A
C280        H290   1.082       .  S
N281        C282   1.365       .  A
N281        C390   1.430       .  S
C282        H288   1.081       .  S
C283        N284   1.343       .  A
C283        H285   1.082       .  S
N284        C286   1.365       .  A
N284        C401   1.425       .  S
C286        H287   1.082       .  S
C291        C293   1.521       .  S
C291        C295   1.509       .  S
C291        C294   1.520       .  S
C291        C451   1.506       .  S
C292        C296   1.557       .  S
C292        C298   1.564       .  S
C292        C297   1.569       .  S
C292        C437   1.560       .  S
C293        C301   1.372       .  A
C294        C305   1.371       .  A
C295        C309   1.367       .  A
C296        C299   1.385       .  A
C297        C303   1.391       .  A
C298        C306   1.391       .  A
C299        H312   1.082       .  S
N300        C301   1.343       .  A
N300        C346   1.425       .  S
C301        H302   1.082       .  S
C303        H313   1.081       .  S
N304        C305   1.343       .  A
N304        C354   1.429       .  S
C305        H311   1.081       .  S
C306        H308   1.082       .  S
N307        C309   1.341       .  A
N307        C380   1.425       .  S
C309        H310   1.083       .  S
C314        C316   1.515       .  S
C314        C318   1.523       .  S
C314        C317   1.509       .  S
C314        C448   1.505       .  S
C315        C319   1.562       .  S
C315        C321   1.568       .  S
C315        C320   1.563       .  S
C315        C434   1.559       .  S
C316        C324   1.368       .  A
C316        C319   1.396       .  A
C317        C328   1.369       .  A
C317        C320   1.392       .  A
C318        C332   1.372       .  A
C318        C321   1.397       .  A
C319        C322   1.388       .  A
C320        C326   1.391       .  A
C321        C329   1.391       .  A
C322        N323   1.366       .  A
C322        H335   1.082       .  S
N323        C324   1.342       .  A
N323        C394   1.427       .  S
C324        H325   1.081       .  S
C326        N327   1.364       .  A
C326        H336   1.080       .  S
N327        C328   1.340       .  A
N327        C402   1.425       .  S
C328        H334   1.083       .  S
C329        N330   1.366       .  A
C329        H331   1.082       .  S
N330        C332   1.342       .  A
N330        C428   1.429       .  S
C332        H333   1.082       .  S
O337       Mg339   2.162       .  S
O337       Mg589   2.180       .  S
O337        C860   1.233       .  S
C338        H377   1.081       .  S
C338        O351   1.232       .  S
C338        O375   1.267       .  A
Mg339      O1100   2.188       .  S
Mg339      O1355   2.257       .  S
Mg339      O1326   2.290       .  S
O340      Mg1114   2.174       .  S
O340       Mg365   2.161       .  S
O340       C1337   1.232       .  S
O341        C372   1.268       .  A
O341       Mg365   2.303       .  S
C342        O344   1.271       .  A
C342        O356   1.270       .  A
O343        C371   1.267       .  A
O343       Mg833   2.296       .  S
O344       Mg376   2.270       .  S
Mg345       O581   2.180   1_556  S
Mg345       O351   2.160       .  S
Mg345       O831   2.296       .  S
Mg345       O847   2.267       .  S
C346        O384   1.270       .  A
C346        O352   1.271       .  A
O347        C354   1.271       .  A
H348       C1337   1.081       .  S
C349        H862   1.081       .  S
C349        O851   1.231       .  S
C349        O364   1.266   1_565  A
O350        C373   1.264       .  A
O350      Mg1315   2.290       .  S
C353        O366   1.272       .  A
C353        O358   1.271       .  A
C354        O381   1.271       .  A
Mg355       O362   2.150       .  S
Mg355       O607   2.188   1_545  S
Mg355       O845   2.295   1_545  S
Mg355       O872   2.254   1_545  S
O357        C361   1.266   1_455  A
O357       Mg843   2.295       .  S
O359        C378   1.271       .  A
O359       Mg833   2.267       .  S
O360        C380   1.269       .  A
C361       H1324   1.081       .  S
C361       O1316   1.232       .  S
O362        C373   1.230       .  S
O363       Mg599   2.188   1_556  S
O363       Mg382   2.165       .  S
O363        C837   1.231       .  S
O364       Mg376   2.296       .  S
Mg365       O381   2.272       .  S
O366      Mg1358   2.276       .  S
H367        C860   1.081       .  S
O368      Mg1071   2.188   1_556  S
O368       Mg376   2.158       .  S
O368       C1347   1.232       .  S
H369       C1347   1.081       .  S
H370        C373   1.081       .  S
C371       H1345   1.081       .  S
C371       O1344   1.232       .  S
C372        H855   1.081       .  S
C372        O825   1.233       .  S
H374        C837   1.081       .  S
O375      Mg1358   2.301       .  S
C378        O383   1.267   1_556  A
O379        C380   1.270       .  A
O379      Mg1315   2.257       .  S
Mg382      O1072   2.174   1_456  S
Mg382      O1342   2.276   1_455  S
Mg382      O1351   2.301   1_455  S
O384       Mg843   2.254       .  S
O385       Mg387   2.157       .  S
O385      Mg1369   2.178       .  S
O385       C1396   1.232       .  S
C386        H425   1.081       .  S
C386        O399   1.231       .  S
C386        O423   1.265       .  A
Mg387       O904   2.189   1_545  S
Mg387       O431   2.279       .  S
Mg387       O915   2.264   1_545  S
Mg387       O886   2.297   1_545  S
O388       Mg918   2.184       .  S
O388       Mg413   2.157       .  S
O388        C897   1.233       .  S
O389        C420   1.267   1_455  A
O389       Mg413   2.300       .  S
C390        O392   1.273       .  A
C390        O404   1.272       .  A
O391        C419   1.267   1_545  A
O391      Mg1369   2.299       .  S
O392       Mg424   2.278       .  S
Mg393      O1361   2.178   1_455  S
Mg393       O399   2.149       .  S
Mg393      O1367   2.299   1_455  S
Mg393      O1383   2.254   1_455  S
Mg393       O395   2.274       .  S
C394        O432   1.272       .  A
C394        O400   1.269       .  A
O395        C402   1.270       .  A
H396        C897   1.081       .  S
C397       H1398   1.081       .  S
C397       O1387   1.232       .  S
C397        O412   1.268       .  A
O398        C421   1.266       .  A
O398       Mg875   2.297       .  S
O399       Mg413   2.172       .  S
O400       Mg430   2.270       .  S
C401        O414   1.271       .  A
C401        O406   1.267       .  A
C402        O429   1.268       .  A
Mg403       O410   2.169       .  S
Mg403      O1387   2.169       .  S
Mg403       O404   2.283       .  S
Mg403      O1381   2.297       .  S
Mg403      O1408   2.278       .  S
O405        C409   1.267       .  A
O405      Mg1379   2.297   1_455  S
O406       Mg413   2.263       .  S
O407        C426   1.269       .  A
O407      Mg1369   2.254       .  S
O408        C428   1.272       .  A
O408       Mg424   2.286       .  S
C409        H884   1.081       .  S
C409        O876   1.233       .  S
O410       Mg424   2.172       .  S
O410        C421   1.231       .  S
O411      Mg1379   2.169   1_455  S
O411       Mg430   2.167       .  S
O411       C1373   1.232       .  S
O412       Mg424   2.303       .  S
Mg413       O429   2.254       .  S
O414       Mg918   2.266       .  S
H415       C1396   1.081       .  S
O416       Mg875   2.189       .  S
O416       Mg424   2.167       .  S
O416        C907   1.232       .  S
H417        C907   1.081       .  S
H418        C421   1.081       .  S
C419        H905   1.081       .  S
C419        O904   1.232       .  S
C420       H1391   1.081       .  S
C420       O1361   1.232       .  S
H422       C1373   1.081       .  S
O423       Mg918   2.291       .  S
C426        O431   1.270       .  A
O427        C428   1.271       .  A
O427       Mg875   2.264       .  S
Mg430       O876   2.184       .  S
Mg430       O902   2.266       .  S
Mg430       O911   2.291       .  S
O432      Mg1379   2.278   1_455  S
C433        C434   1.410       .  A
C433        C438   1.414       .  A
C433        H440   1.082       .  S
C434        C435   1.419       .  A
C435        C436   1.416       .  A
C435        N442   1.431       .  S
C436        C437   1.411       .  A
C436        H441   1.081       .  S
C437        C438   1.429       .  A
C438        N439   1.437       .  S
N439        H443   1.044       .  S
N439        H444   1.041       .  S
N442        H445   1.046       .  S
N442        H446   1.046       .  S
C447        C448   1.405       .  A
C447        C452   1.386       .  A
C447        H454   1.082       .  S
C448        C449   1.410       .  A
C449        C450   1.389       .  A
C449        N456   1.433       .  S
C450        C451   1.403       .  A
C450        H455   1.081       .  S
C451        C452   1.421       .  A
C452        N453   1.440       .  S
N453        H457   1.045       .  S
N453        H458   1.040       .  S
N456        H459   1.046       .  S
N456        H460   1.046       .  S
C461        C462   1.405       .  A
C461        C466   1.393       .  A
C461        H468   1.081       .  S
C462        C463   1.421       .  A
C463        C464   1.387       .  A
C463        N470   1.440       .  S
C464        C465   1.403       .  A
C464        H469   1.082       .  S
C465        C466   1.412       .  A
C466        N467   1.439       .  S
N467        H471   1.046       .  S
N467        H472   1.044       .  S
N470        H473   1.040       .  S
N470        H474   1.045       .  S
C475        C476   1.412       .  A
C475        C480   1.416       .  A
C475        H482   1.081       .  S
C476        C477   1.420       .  A
C477        C478   1.421       .  A
C477        N484   1.436       .  S
C478        C479   1.412       .  A
C478        H483   1.078       .  S
C479        C480   1.418       .  A
C480        N481   1.432       .  S
N481        H485   1.045       .  S
N481        H486   1.045       .  S
N484        H487   1.045       .  S
N484        H488   1.045       .  S
C489        C491   1.564       .  S
C489        C493   1.571       .  S
C489        C492   1.559       .  S
C489        C723   1.561       .  S
C490        C494   1.507       .  S
C490        C496   1.521       .  S
C490        C495   1.522       .  S
C490        C706   1.509       .  S
C491        C499   1.392       .  A
C491        C738   1.391   1_554  A
C492        C503   1.386       .  A
C492        C739   1.397   1_554  A
C493        C507   1.392       .  A
C493        C740   1.399   1_554  A
C494        C735   1.391       .  A
C494        C497   1.366       .  A
C495        C736   1.397       .  A
C495        C501   1.373       .  A
C496        C737   1.399       .  A
C496        C504   1.372       .  A
C497        N498   1.340       .  A
C497        H510   1.083       .  S
N498        C743   1.366       .  A
N498        C622   1.425       .  S
C499        N742   1.366   1_554  A
C499        H500   1.081       .  S
C501        N746   1.343       .  A
C501        H511   1.082       .  S
N502        C745   1.343       .  A
N502        C503   1.366   1_556  A
N502        C830   1.427       .  S
C503        H509   1.082       .  S
C504        N749   1.343       .  A
C504        H506   1.081       .  S
N505        C748   1.343       .  A
N505        C507   1.365   1_556  A
N505        C841   1.429       .  S
C507        H508   1.081       .  S
C512        C514   1.564       .  S
C512        C516   1.558       .  S
C512        C515   1.572       .  S
C512        C720   1.562       .  S
C513        C517   1.507       .  S
C513        C519   1.517       .  S
C513        C518   1.524       .  S
C513        C709   1.507       .  S
C514        C522   1.392       .  A
C514        C517   1.391       .  A
C515        C526   1.393       .  A
C515        C518   1.400       .  A
C516        C530   1.386       .  A
C516        C519   1.396       .  A
C517        C520   1.367       .  A
C518        C524   1.373       .  A
C519        C527   1.370       .  A
C520        N521   1.341       .  A
C520        H533   1.083       .  S
N521        C522   1.365       .  A
N521        C670   1.425       .  S
C522        H523   1.082       .  S
C524        N525   1.342       .  A
C524        H534   1.082       .  S
N525        C526   1.365       .  A
N525        C634   1.430       .  S
C526        H532   1.081       .  S
C527        N528   1.343       .  A
C527        H529   1.082       .  S
N528        C530   1.365       .  A
N528        C645   1.425       .  S
C530        H531   1.082       .  S
C535        C537   1.521       .  S
C535        C539   1.509       .  S
C535        C538   1.520       .  S
C535        C695   1.506       .  S
C536        C540   1.557       .  S
C536        C542   1.564       .  S
C536        C541   1.569       .  S
C536        C681   1.560       .  S
C537        C545   1.372       .  A
C537        C784   1.395   1_554  A
C538        C549   1.371       .  A
C538        C785   1.397   1_554  A
C539        C553   1.367       .  A
C539        C786   1.392   1_554  A
C540        C781   1.395       .  A
C540        C543   1.385       .  A
C541        C782   1.397       .  A
C541        C547   1.391       .  A
C542        C783   1.392       .  A
C542        C550   1.391       .  A
C543        N788   1.364       .  A
C543        H556   1.082       .  S
N544        C787   1.364   1_554  A
N544        C545   1.343       .  A
N544        C590   1.425       .  S
C545        H546   1.082       .  S
C547        N792   1.365       .  A
C547        H557   1.081       .  S
N548        C791   1.365   1_554  A
N548        C549   1.343       .  A
N548        C598   1.429       .  S
C549        H555   1.081       .  S
C550        N795   1.366       .  A
C550        H552   1.082       .  S
N551        C794   1.366   1_554  A
N551        C553   1.341       .  A
N551        C624   1.425       .  S
C553        H554   1.083       .  S
C558        C560   1.515       .  S
C558        C562   1.523       .  S
C558        C561   1.509       .  S
C558        C692   1.505       .  S
C559        C563   1.562       .  S
C559        C565   1.568       .  S
C559        C564   1.563       .  S
C559        C678   1.559       .  S
C560        C568   1.368       .  A
C560        C563   1.396       .  A
C561        C572   1.369       .  A
C561        C564   1.392       .  A
C562        C576   1.372       .  A
C562        C565   1.397       .  A
C563        C566   1.388       .  A
C564        C570   1.391       .  A
C565        C573   1.391       .  A
C566        N567   1.366       .  A
C566        H579   1.082       .  S
N567        C568   1.342       .  A
N567        C638   1.427       .  S
C568        H569   1.081       .  S
C570        N571   1.364       .  A
C570        H580   1.080       .  S
N571        C572   1.340       .  A
N571        C646   1.425       .  S
C572        H578   1.083       .  S
C573        N574   1.366       .  A
C573        H575   1.082       .  S
N574        C576   1.342       .  A
N574        C672   1.429       .  S
C576        H577   1.082       .  S
O581       Mg583   2.162       .  S
C582        H621   1.081       .  S
C582        O595   1.232       .  S
C582        O619   1.267       .  A
Mg583      O1832   2.188   1_554  S
Mg583       O871   2.260       .  S
Mg583      O1599   2.257       .  S
Mg583      O1570   2.290       .  S
O584      Mg1846   2.174   1_554  S
O584       Mg609   2.161       .  S
O584       C1581   1.232       .  S
O585        C616   1.268   1_565  A
O585       Mg609   2.303       .  S
C586        N746   1.427       .  S
C586        O588   1.271       .  A
C586        O600   1.270       .  A
O587        C615   1.267       .  A
O588       Mg620   2.270       .  S
Mg589       O595   2.160   1_545  S
Mg589       O835   2.283   1_545  S
C590        O628   1.270       .  A
C590        O596   1.271   1_554  A
O591        C598   1.271       .  A
O591       Mg833   2.283   1_564  S
H592       C1581   1.081       .  S
C593        O608   1.266       .  A
O594        C617   1.264       .  A
O594      Mg1559   2.290       .  S
O595       Mg853   2.163       .  S
O596       Mg870   2.275       .  S
C597        N749   1.429       .  S
C597        O610   1.272       .  A
C597        O602   1.271       .  A
C598        O625   1.271       .  A
Mg599       O606   2.150       .  S
Mg599       O844   2.271   1_554  S
O600       Mg843   2.271       .  S
O601        C605   1.266   1_455  A
O602       Mg853   2.280       .  S
O603        C622   1.271       .  A
O604        C624   1.269       .  A
O604       Mg864   2.272   1_554  S
C605       H1568   1.081       .  S
C605       O1560   1.232       .  S
O606       Mg864   2.182   1_554  S
O606        C617   1.230       .  S
O607       Mg626   2.165       .  S
O608       Mg620   2.296       .  S
Mg609       O839   2.163   1_554  S
Mg609       O846   2.280   1_554  S
Mg609       O625   2.272       .  S
O610      Mg1602   2.276       .  S
O612      Mg1803   2.188       .  S
O612       Mg620   2.158       .  S
O612       C1591   1.232       .  S
H613       C1591   1.081       .  S
H614        C617   1.081       .  S
C615       H1589   1.081       .  S
C615       O1588   1.232       .  S
O619      Mg1602   2.301       .  S
Mg620       O850   2.182       .  S
Mg620       O848   2.272       .  S
C622        O627   1.267       .  A
O623        C624   1.270       .  A
O623      Mg1559   2.257       .  S
Mg626      O1804   2.174   1_455  S
Mg626       O840   2.275       .  S
Mg626      O1586   2.276   1_455  S
Mg626      O1595   2.301   1_455  S
O627       Mg827   2.260       .  S
O629       Mg631   2.157       .  S
O629      Mg1613   2.178       .  S
O629       C1640   1.232       .  S
C630        H669   1.081       .  S
C630        O643   1.231       .  S
C630        O667   1.265       .  A
Mg631       O675   2.279       .  S
O632       Mg657   2.157       .  S
O633        C664   1.267   1_455  A
O633       Mg657   2.300       .  S
C634        O636   1.273       .  A
C634        O648   1.272       .  A
O635        C663   1.267       .  A
O635      Mg1613   2.299       .  S
O636       Mg668   2.278       .  S
Mg637      O1605   2.178   1_455  S
Mg637       O643   2.149       .  S
Mg637      O1611   2.299   1_455  S
Mg637      O1627   2.254   1_455  S
Mg637       O639   2.274       .  S
C638        O676   1.272       .  A
C638        O644   1.269       .  A
O639        C646   1.270       .  A
C641       H1642   1.081       .  S
C641       O1631   1.232       .  S
C641        O656   1.268       .  A
O642        C665   1.266       .  A
O643       Mg657   2.172       .  S
O644       Mg674   2.270   1_565  S
C645        O658   1.271       .  A
C645        O650   1.267       .  A
C646        O673   1.268       .  A
Mg647       O654   2.169       .  S
Mg647      O1631   2.169       .  S
Mg647       O648   2.283       .  S
Mg647      O1625   2.297       .  S
Mg647      O1652   2.278       .  S
O649        C653   1.267   1_565  A
O649      Mg1623   2.297   1_455  S
O650       Mg657   2.263       .  S
O651        C670   1.269       .  A
O651      Mg1613   2.254       .  S
O652        C672   1.272       .  A
O652       Mg668   2.286       .  S
O654       Mg668   2.172       .  S
O654        C665   1.231       .  S
O655      Mg1623   2.169   1_455  S
O655       Mg674   2.167   1_565  S
O655       C1617   1.232       .  S
O656       Mg668   2.303       .  S
Mg657       O673   2.254       .  S
H659       C1640   1.081       .  S
O660       Mg668   2.167       .  S
H662        C665   1.081       .  S
C664       H1635   1.081       .  S
C664       O1605   1.232       .  S
H666       C1617   1.081       .  S
C670        O675   1.270       .  A
O671        C672   1.271       .  A
O676      Mg1623   2.278   1_455  S
C677        C678   1.410       .  A
C677        C682   1.414       .  A
C677        H684   1.082       .  S
C678        C679   1.419       .  A
C679        C680   1.416       .  A
C679        N686   1.431       .  S
C680        C681   1.411       .  A
C680        H685   1.081       .  S
C681        C682   1.429       .  A
C682        N683   1.437       .  S
N683        H687   1.044       .  S
N683        H688   1.041       .  S
N686        H689   1.046       .  S
N686        H690   1.046       .  S
C691        C692   1.405       .  A
C691        C696   1.386       .  A
C691        H698   1.082       .  S
C692        C693   1.410       .  A
C693        C694   1.389       .  A
C693        N700   1.433       .  S
C694        C695   1.403       .  A
C694        H699   1.081       .  S
C695        C696   1.421       .  A
C696        N697   1.440       .  S
N697        H701   1.045       .  S
N697        H702   1.040       .  S
N700        H703   1.046       .  S
N700        H704   1.046       .  S
C705        C706   1.405       .  A
C705        C710   1.393       .  A
C705        H712   1.081       .  S
C706        C707   1.421       .  A
C707        C708   1.387       .  A
C707        N714   1.440       .  S
C708        C709   1.403       .  A
C708        H713   1.082       .  S
C709        C710   1.412       .  A
C710        N711   1.439       .  S
N711        H715   1.046       .  S
N711        H716   1.044       .  S
N714        H717   1.040       .  S
N714        H718   1.045       .  S
C719        C720   1.412       .  A
C719        C724   1.416       .  A
C719        H726   1.081       .  S
C720        C721   1.420       .  A
C721        C722   1.421       .  A
C721        N728   1.436       .  S
C722        C723   1.412       .  A
C722        H727   1.078       .  S
C723        C724   1.418       .  A
C724        N725   1.432       .  S
N725        H729   1.045       .  S
N725        H730   1.045       .  S
N728        H731   1.045       .  S
N728        H732   1.045       .  S
C733        C735   1.564       .  S
C733        C737   1.571       .  S
C733        C736   1.559       .  S
C733        C967   1.561       .  S
C734        C738   1.507       .  S
C734        C740   1.521       .  S
C734        C739   1.522       .  S
C734        C950   1.509       .  S
C735        C743   1.392       .  A
C736        C747   1.386       .  A
C737        C751   1.392       .  A
C738        C741   1.366       .  A
C739        C745   1.373       .  A
C740        C748   1.372       .  A
C741        N742   1.340       .  A
C741        H754   1.083       .  S
N742        C866   1.425       .  S
C743        H744   1.081       .  S
C745        H755   1.082       .  S
N746        C747   1.366       .  A
C747        H753   1.082       .  S
C748        H750   1.081       .  S
N749        C751   1.365       .  A
C751        H752   1.081       .  S
C756        C758   1.564       .  S
C756        C760   1.558       .  S
C756        C759   1.572       .  S
C756        C964   1.562       .  S
C757        C761   1.507       .  S
C757        C763   1.517       .  S
C757        C762   1.524       .  S
C757        C953   1.507       .  S
C758        C766   1.392       .  A
C758        C761   1.391       .  A
C759        C770   1.393       .  A
C759        C762   1.400       .  A
C760        C774   1.386       .  A
C760        C763   1.396       .  A
C761        C764   1.367       .  A
C762        C768   1.373       .  A
C763        C771   1.370       .  A
C764        N765   1.341       .  A
C764        H777   1.083       .  S
N765        C766   1.365       .  A
N765        C914   1.425       .  S
C766        H767   1.082       .  S
C768        N769   1.342       .  A
C768        H778   1.082       .  S
N769        C770   1.365       .  A
N769        C878   1.430       .  S
C770        H776   1.081       .  S
C771        N772   1.343       .  A
C771        H773   1.082       .  S
N772        C774   1.365       .  A
N772        C889   1.425       .  S
C774        H775   1.082       .  S
C779        C781   1.521       .  S
C779        C783   1.509       .  S
C779        C782   1.520       .  S
C779        C939   1.506       .  S
C780        C784   1.557       .  S
C780        C786   1.564       .  S
C780        C785   1.569       .  S
C780        C925   1.560       .  S
C781        C789   1.372       .  A
C782        C793   1.371       .  A
C783        C797   1.367       .  A
C784        C787   1.385       .  A
C785        C791   1.391       .  A
C786        C794   1.391       .  A
C787        H800   1.082       .  S
N788        C789   1.343       .  A
N788        C834   1.425       .  S
C789        H790   1.082       .  S
C791        H801   1.081       .  S
N792        C793   1.343       .  A
N792        C842   1.429       .  S
C793        H799   1.081       .  S
C794        H796   1.082       .  S
N795        C797   1.341       .  A
N795        C868   1.425       .  S
C797        H798   1.083       .  S
C802        C804   1.515       .  S
C802        C806   1.523       .  S
C802        C805   1.509       .  S
C802        C936   1.505       .  S
C803        C807   1.562       .  S
C803        C809   1.568       .  S
C803        C808   1.563       .  S
C803        C922   1.559       .  S
C804        C812   1.368       .  A
C804        C807   1.396       .  A
C805        C816   1.369       .  A
C805        C808   1.392       .  A
C806        C820   1.372       .  A
C806        C809   1.397       .  A
C807        C810   1.388       .  A
C808        C814   1.391       .  A
C809        C817   1.391       .  A
C810        N811   1.366       .  A
C810        H823   1.082       .  S
N811        C812   1.342       .  A
N811        C882   1.427       .  S
C812        H813   1.081       .  S
C814        N815   1.364       .  A
C814        H824   1.080       .  S
N815        C816   1.340       .  A
N815        C890   1.425       .  S
C816        H822   1.083       .  S
C817        N818   1.366       .  A
C817        H819   1.082       .  S
N818        C820   1.342       .  A
N818        C916   1.429       .  S
C820        H821   1.082       .  S
O825       Mg827   2.162       .  S
C826        H865   1.081       .  S
C826        O839   1.232       .  S
C826        O863   1.267       .  A
Mg827      O1588   2.188       .  S
Mg827      O1843   2.257       .  S
Mg827      O1814   2.290       .  S
O828      Mg1602   2.174       .  S
O828       Mg853   2.161       .  S
O828       C1825   1.232       .  S
O829        C860   1.268   1_565  A
O829       Mg853   2.303       .  S
C830        O832   1.271       .  A
C830        O844   1.270       .  A
O831        C859   1.267       .  A
O832       Mg864   2.270       .  S
Mg833       O839   2.160   1_545  S
C834        O872   1.270       .  A
C834        O840   1.271       .  A
O835        C842   1.271       .  A
H836       C1825   1.081       .  S
C837        O852   1.266       .  A
O838        C861   1.264       .  A
O838      Mg1803   2.290       .  S
C841        O854   1.272       .  A
C841        O846   1.271       .  A
C842        O869   1.271       .  A
Mg843       O850   2.150       .  S
O845        C849   1.266   1_455  A
O847        C866   1.271       .  A
O848        C868   1.269       .  A
C849       H1812   1.081       .  S
C849       O1804   1.232       .  S
O850        C861   1.230       .  S
O851       Mg870   2.165       .  S
O852       Mg864   2.296       .  S
Mg853       O869   2.272       .  S
O854      Mg1846   2.276       .  S
O856      Mg1559   2.188   1_556  S
O856       Mg864   2.158       .  S
O856       C1835   1.232       .  S
H857       C1835   1.081       .  S
H858        C861   1.081       .  S
C859       H1833   1.081       .  S
C859       O1832   1.232       .  S
O863      Mg1846   2.301       .  S
C866        O871   1.267   1_556  A
O867        C868   1.270       .  A
O867      Mg1803   2.257       .  S
Mg870      O1560   2.174   1_456  S
Mg870      O1830   2.276   1_455  S
Mg870      O1839   2.301   1_455  S
O873       Mg875   2.157       .  S
O873      Mg1857   2.178       .  S
O873       C1884   1.232       .  S
C874        H913   1.081       .  S
C874        O887   1.231       .  S
C874        O911   1.265       .  A
Mg875       O919   2.279       .  S
O876       Mg901   2.157       .  S
O877        C908   1.267   1_455  A
O877       Mg901   2.300       .  S
C878        O880   1.273       .  A
C878        O892   1.272       .  A
O879        C907   1.267       .  A
O879      Mg1857   2.299       .  S
O880       Mg912   2.278       .  S
Mg881      O1849   2.178   1_455  S
Mg881       O887   2.149       .  S
Mg881      O1855   2.299   1_455  S
Mg881      O1871   2.254   1_455  S
Mg881       O883   2.274       .  S
C882        O920   1.272       .  A
C882        O888   1.269       .  A
O883        C890   1.270       .  A
C885       H1886   1.081       .  S
C885       O1875   1.232       .  S
C885        O900   1.268       .  A
O886        C909   1.266       .  A
O887       Mg901   2.172       .  S
O888       Mg918   2.270   1_565  S
C889        O902   1.271       .  A
C889        O894   1.267       .  A
C890        O917   1.268       .  A
Mg891       O898   2.169       .  S
Mg891      O1875   2.169       .  S
Mg891       O892   2.283       .  S
Mg891      O1869   2.297       .  S
Mg891      O1896   2.278       .  S
O893        C897   1.267   1_565  A
O893      Mg1867   2.297   1_455  S
O894       Mg901   2.263       .  S
O895        C914   1.269       .  A
O895      Mg1857   2.254       .  S
O896        C916   1.272       .  A
O896       Mg912   2.286       .  S
O898       Mg912   2.172       .  S
O898        C909   1.231       .  S
O899      Mg1867   2.169   1_455  S
O899       Mg918   2.167   1_565  S
O899       C1861   1.232       .  S
O900       Mg912   2.303       .  S
Mg901       O917   2.254       .  S
H903       C1884   1.081       .  S
O904       Mg912   2.167       .  S
H906        C909   1.081       .  S
C908       H1879   1.081       .  S
C908       O1849   1.232       .  S
H910       C1861   1.081       .  S
C914        O919   1.270       .  A
O915        C916   1.271       .  A
O920      Mg1867   2.278   1_455  S
C921        C922   1.410       .  A
C921        C926   1.414       .  A
C921        H928   1.082       .  S
C922        C923   1.419       .  A
C923        C924   1.416       .  A
C923        N930   1.431       .  S
C924        C925   1.411       .  A
C924        H929   1.081       .  S
C925        C926   1.429       .  A
C926        N927   1.437       .  S
N927        H931   1.044       .  S
N927        H932   1.041       .  S
N930        H933   1.046       .  S
N930        H934   1.046       .  S
C935        C936   1.405       .  A
C935        C940   1.386       .  A
C935        H942   1.082       .  S
C936        C937   1.410       .  A
C937        C938   1.389       .  A
C937        N944   1.433       .  S
C938        C939   1.403       .  A
C938        H943   1.081       .  S
C939        C940   1.421       .  A
C940        N941   1.440       .  S
N941        H945   1.045       .  S
N941        H946   1.040       .  S
N944        H947   1.046       .  S
N944        H948   1.046       .  S
C949        C950   1.405       .  A
C949        C954   1.393       .  A
C949        H956   1.081       .  S
C950        C951   1.421       .  A
C951        C952   1.387       .  A
C951        N958   1.440       .  S
C952        C953   1.403       .  A
C952        H957   1.082       .  S
C953        C954   1.412       .  A
C954        N955   1.439       .  S
N955        H959   1.046       .  S
N955        H960   1.044       .  S
N958        H961   1.040       .  S
N958        H962   1.045       .  S
C963        C964   1.412       .  A
C963        C968   1.416       .  A
C963        H970   1.081       .  S
C964        C965   1.420       .  A
C965        C966   1.421       .  A
C965        N972   1.436       .  S
C966        C967   1.412       .  A
C966        H971   1.078       .  S
C967        C968   1.418       .  A
C968        N969   1.432       .  S
N969        H973   1.045       .  S
N969        H974   1.045       .  S
N972        H975   1.045       .  S
N972        H976   1.045       .  S
C977        C979   1.564       .  S
C977        C981   1.571       .  S
C977        C980   1.559       .  S
C977       C1211   1.561       .  S
C978        C982   1.507       .  S
C978        C984   1.521       .  S
C978        C983   1.522       .  S
C978       C1194   1.509       .  S
C979        C987   1.392       .  A
C979       C1226   1.391   1_554  A
C980        C991   1.386       .  A
C980       C1227   1.397   1_554  A
C981        C995   1.392       .  A
C981       C1228   1.399   1_554  A
C982       C1223   1.391       .  A
C982        C985   1.366       .  A
C983       C1224   1.397       .  A
C983        C989   1.373       .  A
C984       C1225   1.399       .  A
C984        C992   1.372       .  A
C985        N986   1.340       .  A
C985        H998   1.083       .  S
N986       C1231   1.366       .  A
N986       C1110   1.425       .  S
C987       N1230   1.366   1_554  A
C987        H988   1.081       .  S
C989       N1234   1.343       .  A
C989        H999   1.082       .  S
N990       C1233   1.343       .  A
N990        C991   1.366   1_556  A
N990       C1318   1.427       .  S
C991        H997   1.082       .  S
C992       N1237   1.343       .  A
C992        H994   1.081       .  S
N993       C1236   1.343       .  A
N993        C995   1.365   1_556  A
N993       C1329   1.429       .  S
C995        H996   1.081       .  S
C1000      C1002   1.564       .  S
C1000      C1004   1.558       .  S
C1000      C1003   1.572       .  S
C1000      C1208   1.562       .  S
C1001      C1005   1.507       .  S
C1001      C1007   1.517       .  S
C1001      C1006   1.524       .  S
C1001      C1197   1.507       .  S
C1002      C1010   1.392       .  A
C1002      C1005   1.391       .  A
C1003      C1014   1.393       .  A
C1003      C1006   1.400       .  A
C1004      C1018   1.386       .  A
C1004      C1007   1.396       .  A
C1005      C1008   1.367       .  A
C1006      C1012   1.373       .  A
C1007      C1015   1.370       .  A
C1008      N1009   1.341       .  A
C1008      H1021   1.083       .  S
N1009      C1010   1.365       .  A
N1009      C1158   1.425       .  S
C1010      H1011   1.082       .  S
C1012      N1013   1.342       .  A
C1012      H1022   1.082       .  S
N1013      C1014   1.365       .  A
N1013      C1122   1.430       .  S
C1014      H1020   1.081       .  S
C1015      N1016   1.343       .  A
C1015      H1017   1.082       .  S
N1016      C1018   1.365       .  A
N1016      C1133   1.425       .  S
C1018      H1019   1.082       .  S
C1023      C1025   1.521       .  S
C1023      C1027   1.509       .  S
C1023      C1026   1.520       .  S
C1023      C1183   1.506       .  S
C1024      C1028   1.557       .  S
C1024      C1030   1.564       .  S
C1024      C1029   1.569       .  S
C1024      C1169   1.560       .  S
C1025      C1033   1.372       .  A
C1025      C1272   1.395   1_554  A
C1026      C1037   1.371       .  A
C1026      C1273   1.397   1_554  A
C1027      C1041   1.367       .  A
C1027      C1274   1.392   1_554  A
C1028      C1269   1.395       .  A
C1028      C1031   1.385       .  A
C1029      C1270   1.397       .  A
C1029      C1035   1.391       .  A
C1030      C1271   1.392       .  A
C1030      C1038   1.391       .  A
C1031      N1276   1.364       .  A
C1031      H1044   1.082       .  S
N1032      C1275   1.364   1_554  A
N1032      C1033   1.343       .  A
N1032      C1078   1.425       .  S
C1033      H1034   1.082       .  S
C1035      N1280   1.365       .  A
C1035      H1045   1.081       .  S
N1036      C1279   1.365   1_554  A
N1036      C1037   1.343       .  A
N1036      C1086   1.429       .  S
C1037      H1043   1.081       .  S
C1038      N1283   1.366       .  A
C1038      H1040   1.082       .  S
N1039      C1282   1.366   1_554  A
N1039      C1041   1.341       .  A
N1039      C1112   1.425       .  S
C1041      H1042   1.083       .  S
C1046      C1048   1.515       .  S
C1046      C1050   1.523       .  S
C1046      C1049   1.509       .  S
C1046      C1180   1.505       .  S
C1047      C1051   1.562       .  S
C1047      C1053   1.568       .  S
C1047      C1052   1.563       .  S
C1047      C1166   1.559       .  S
C1048      C1056   1.368       .  A
C1048      C1051   1.396       .  A
C1049      C1060   1.369       .  A
C1049      C1052   1.392       .  A
C1050      C1064   1.372       .  A
C1050      C1053   1.397       .  A
C1051      C1054   1.388       .  A
C1052      C1058   1.391       .  A
C1053      C1061   1.391       .  A
C1054      N1055   1.366       .  A
C1054      H1067   1.082       .  S
N1055      C1056   1.342       .  A
N1055      C1126   1.427       .  S
C1056      H1057   1.081       .  S
C1058      N1059   1.364       .  A
C1058      H1068   1.080       .  S
N1059      C1060   1.340       .  A
N1059      C1134   1.425       .  S
C1060      H1066   1.083       .  S
C1061      N1062   1.366       .  A
C1061      H1063   1.082       .  S
N1062      C1064   1.342       .  A
N1062      C1160   1.429       .  S
C1064      H1065   1.082       .  S
O1069     Mg1071   2.162   1_655  S
O1069     Mg1809   2.180   1_554  S
O1069      C1592   1.233       .  S
C1070      H1109   1.081       .  S
C1070      O1083   1.232       .  S
C1070      O1107   1.267       .  A
Mg1071     O1359   2.260   1_455  S
O1072     Mg1097   2.161       .  S
O1073      C1104   1.268       .  A
O1073     Mg1097   2.303       .  S
C1074      N1234   1.427       .  S
C1074      O1076   1.271       .  A
C1074      O1088   1.270       .  A
O1075      C1103   1.267   1_655  A
O1075     Mg1565   2.296       .  S
O1076     Mg1108   2.270       .  S
Mg1077     O1801   2.180       .  S
Mg1077     O1083   2.160       .  S
Mg1077     O1563   2.296       .  S
Mg1077     O1579   2.267       .  S
Mg1077     O1323   2.283       .  S
C1078      O1116   1.270       .  A
C1078      O1084   1.271   1_554  A
O1079      C1086   1.271       .  A
O1079     Mg1321   2.283   1_554  S
C1081      H1594   1.081       .  S
C1081      O1583   1.231       .  S
C1081      O1096   1.266   1_565  A
O1082      C1105   1.264       .  A
O1083     Mg1341   2.163       .  S
O1084     Mg1358   2.275       .  S
C1085      N1237   1.429       .  S
C1085      O1098   1.272       .  A
C1085      O1090   1.271       .  A
C1086      O1113   1.271       .  A
Mg1087     O1094   2.150       .  S
Mg1087     O1827   2.188   1_544  S
Mg1087     O1332   2.271   1_554  S
Mg1087     O1577   2.295   1_545  S
Mg1087     O1604   2.254   1_545  S
O1088     Mg1331   2.271       .  S
O1089      C1093   1.266       .  A
O1089     Mg1575   2.295       .  S
O1090     Mg1341   2.280       .  S
O1091      C1110   1.271       .  A
O1091     Mg1565   2.267       .  S
O1092      C1112   1.269       .  A
O1092     Mg1352   2.272   1_554  S
O1094     Mg1352   2.182   1_554  S
O1094      C1105   1.230       .  S
O1095     Mg1819   2.188       .  S
O1095     Mg1114   2.165       .  S
O1095      C1569   1.231       .  S
O1096     Mg1108   2.296       .  S
Mg1097     O1327   2.163   1_554  S
Mg1097     O1334   2.280   1_554  S
Mg1097     O1113   2.272       .  S
H1099      C1592   1.081       .  S
O1100     Mg1108   2.158       .  S
H1102      C1105   1.081       .  S
C1104      H1587   1.081       .  S
C1104      O1557   1.233       .  S
H1106      C1569   1.081       .  S
Mg1108     O1338   2.182       .  S
Mg1108     O1336   2.272       .  S
C1110      O1115   1.267       .  A
O1111      C1112   1.270       .  A
Mg1114     O1328   2.275       .  S
O1115     Mg1315   2.260   1_655  S
O1116     Mg1575   2.254       .  S
O1117     Mg1119   2.157       .  S
C1118      H1157   1.081       .  S
C1118      O1131   1.231       .  S
C1118      O1155   1.265       .  A
Mg1119     O1636   2.189   1_545  S
Mg1119     O1163   2.279       .  S
Mg1119     O1647   2.264   1_545  S
Mg1119     O1618   2.297   1_545  S
O1120     Mg1650   2.184       .  S
O1120     Mg1145   2.157       .  S
O1120      C1629   1.233       .  S
O1121      C1152   1.267       .  A
O1121     Mg1145   2.300       .  S
C1122      O1124   1.273       .  A
C1122      O1136   1.272       .  A
O1123      C1151   1.267   1_545  A
O1124     Mg1156   2.278       .  S
Mg1125     O1131   2.149       .  S
Mg1125     O1127   2.274       .  S
C1126      O1164   1.272       .  A
C1126      O1132   1.269       .  A
O1127      C1134   1.270       .  A
H1128      C1629   1.081       .  S
C1129      O1144   1.268   1_455  A
O1130      C1153   1.266       .  A
O1130     Mg1607   2.297       .  S
O1131     Mg1145   2.172       .  S
O1132     Mg1162   2.270       .  S
C1133      O1146   1.271       .  A
C1133      O1138   1.267       .  A
C1134      O1161   1.268       .  A
Mg1135     O1142   2.169       .  S
Mg1135     O1136   2.283       .  S
O1137      C1141   1.267       .  A
O1138     Mg1145   2.263       .  S
O1139      C1158   1.269       .  A
O1140      C1160   1.272       .  A
O1140     Mg1156   2.286       .  S
C1141      H1616   1.081       .  S
C1141      O1608   1.233       .  S
O1142     Mg1156   2.172       .  S
O1142      C1153   1.231       .  S
O1143     Mg1162   2.167       .  S
O1144     Mg1156   2.303       .  S
Mg1145     O1161   2.254       .  S
O1146     Mg1650   2.266       .  S
O1148     Mg1607   2.189       .  S
O1148     Mg1156   2.167       .  S
O1148      C1639   1.232       .  S
H1149      C1639   1.081       .  S
H1150      C1153   1.081       .  S
C1151      H1637   1.081       .  S
C1151      O1636   1.232       .  S
O1155     Mg1650   2.291       .  S
C1158      O1163   1.270       .  A
O1159      C1160   1.271       .  A
O1159     Mg1607   2.264       .  S
Mg1162     O1608   2.184       .  S
Mg1162     O1634   2.266       .  S
Mg1162     O1643   2.291       .  S
C1165      C1166   1.410       .  A
C1165      C1170   1.414       .  A
C1165      H1172   1.082       .  S
C1166      C1167   1.419       .  A
C1167      C1168   1.416       .  A
C1167      N1174   1.431       .  S
C1168      C1169   1.411       .  A
C1168      H1173   1.081       .  S
C1169      C1170   1.429       .  A
C1170      N1171   1.437       .  S
N1171      H1175   1.044       .  S
N1171      H1176   1.041       .  S
N1174      H1177   1.046       .  S
N1174      H1178   1.046       .  S
C1179      C1180   1.405       .  A
C1179      C1184   1.386       .  A
C1179      H1186   1.082       .  S
C1180      C1181   1.410       .  A
C1181      C1182   1.389       .  A
C1181      N1188   1.433       .  S
C1182      C1183   1.403       .  A
C1182      H1187   1.081       .  S
C1183      C1184   1.421       .  A
C1184      N1185   1.440       .  S
N1185      H1189   1.045       .  S
N1185      H1190   1.040       .  S
N1188      H1191   1.046       .  S
N1188      H1192   1.046       .  S
C1193      C1194   1.405       .  A
C1193      C1198   1.393       .  A
C1193      H1200   1.081       .  S
C1194      C1195   1.421       .  A
C1195      C1196   1.387       .  A
C1195      N1202   1.440       .  S
C1196      C1197   1.403       .  A
C1196      H1201   1.082       .  S
C1197      C1198   1.412       .  A
C1198      N1199   1.439       .  S
N1199      H1203   1.046       .  S
N1199      H1204   1.044       .  S
N1202      H1205   1.040       .  S
N1202      H1206   1.045       .  S
C1207      C1208   1.412       .  A
C1207      C1212   1.416       .  A
C1207      H1214   1.081       .  S
C1208      C1209   1.420       .  A
C1209      C1210   1.421       .  A
C1209      N1216   1.436       .  S
C1210      C1211   1.412       .  A
C1210      H1215   1.078       .  S
C1211      C1212   1.418       .  A
C1212      N1213   1.432       .  S
N1213      H1217   1.045       .  S
N1213      H1218   1.045       .  S
N1216      H1219   1.045       .  S
N1216      H1220   1.045       .  S
C1221      C1223   1.564       .  S
C1221      C1225   1.571       .  S
C1221      C1224   1.559       .  S
C1221      C1455   1.561       .  S
C1222      C1226   1.507       .  S
C1222      C1228   1.521       .  S
C1222      C1227   1.522       .  S
C1222      C1438   1.509       .  S
C1223      C1231   1.392       .  A
C1224      C1235   1.386       .  A
C1225      C1239   1.392       .  A
C1226      C1229   1.366       .  A
C1227      C1233   1.373       .  A
C1228      C1236   1.372       .  A
C1229      N1230   1.340       .  A
C1229      H1242   1.083       .  S
N1230      C1354   1.425       .  S
C1231      H1232   1.081       .  S
C1233      H1243   1.082       .  S
N1234      C1235   1.366       .  A
C1235      H1241   1.082       .  S
C1236      H1238   1.081       .  S
N1237      C1239   1.365       .  A
C1239      H1240   1.081       .  S
C1244      C1246   1.564       .  S
C1244      C1248   1.558       .  S
C1244      C1247   1.572       .  S
C1244      C1452   1.562       .  S
C1245      C1249   1.507       .  S
C1245      C1251   1.517       .  S
C1245      C1250   1.524       .  S
C1245      C1441   1.507       .  S
C1246      C1254   1.392       .  A
C1246      C1249   1.391       .  A
C1247      C1258   1.393       .  A
C1247      C1250   1.400       .  A
C1248      C1262   1.386       .  A
C1248      C1251   1.396       .  A
C1249      C1252   1.367       .  A
C1250      C1256   1.373       .  A
C1251      C1259   1.370       .  A
C1252      N1253   1.341       .  A
C1252      H1265   1.083       .  S
N1253      C1254   1.365       .  A
N1253      C1402   1.425       .  S
C1254      H1255   1.082       .  S
C1256      N1257   1.342       .  A
C1256      H1266   1.082       .  S
N1257      C1258   1.365       .  A
N1257      C1366   1.430       .  S
C1258      H1264   1.081       .  S
C1259      N1260   1.343       .  A
C1259      H1261   1.082       .  S
N1260      C1262   1.365       .  A
N1260      C1377   1.425       .  S
C1262      H1263   1.082       .  S
C1267      C1269   1.521       .  S
C1267      C1271   1.509       .  S
C1267      C1270   1.520       .  S
C1267      C1427   1.506       .  S
C1268      C1272   1.557       .  S
C1268      C1274   1.564       .  S
C1268      C1273   1.569       .  S
C1268      C1413   1.560       .  S
C1269      C1277   1.372       .  A
C1270      C1281   1.371       .  A
C1271      C1285   1.367       .  A
C1272      C1275   1.385       .  A
C1273      C1279   1.391       .  A
C1274      C1282   1.391       .  A
C1275      H1288   1.082       .  S
N1276      C1277   1.343       .  A
N1276      C1322   1.425       .  S
C1277      H1278   1.082       .  S
C1279      H1289   1.081       .  S
N1280      C1281   1.343       .  A
N1280      C1330   1.429       .  S
C1281      H1287   1.081       .  S
C1282      H1284   1.082       .  S
N1283      C1285   1.341       .  A
N1283      C1356   1.425       .  S
C1285      H1286   1.083       .  S
C1290      C1292   1.515       .  S
C1290      C1294   1.523       .  S
C1290      C1293   1.509       .  S
C1290      C1424   1.505       .  S
C1291      C1295   1.562       .  S
C1291      C1297   1.568       .  S
C1291      C1296   1.563       .  S
C1291      C1410   1.559       .  S
C1292      C1300   1.368       .  A
C1292      C1295   1.396       .  A
C1293      C1304   1.369       .  A
C1293      C1296   1.392       .  A
C1294      C1308   1.372       .  A
C1294      C1297   1.397       .  A
C1295      C1298   1.388       .  A
C1296      C1302   1.391       .  A
C1297      C1305   1.391       .  A
C1298      N1299   1.366       .  A
C1298      H1311   1.082       .  S
N1299      C1300   1.342       .  A
N1299      C1370   1.427       .  S
C1300      H1301   1.081       .  S
C1302      N1303   1.364       .  A
C1302      H1312   1.080       .  S
N1303      C1304   1.340       .  A
N1303      C1378   1.425       .  S
C1304      H1310   1.083       .  S
C1305      N1306   1.366       .  A
C1305      H1307   1.082       .  S
N1306      C1308   1.342       .  A
N1306      C1404   1.429       .  S
C1308      H1309   1.082       .  S
O1313     Mg1315   2.162   1_655  S
O1313     Mg1565   2.180       .  S
O1313      C1836   1.233       .  S
C1314      H1353   1.081       .  S
C1314      O1327   1.232       .  S
C1314      O1351   1.267       .  A
O1316     Mg1341   2.161       .  S
O1317      C1348   1.268       .  A
O1317     Mg1341   2.303       .  S
C1318      O1320   1.271       .  A
C1318      O1332   1.270       .  A
O1319      C1347   1.267   1_655  A
O1319     Mg1809   2.296       .  S
O1320     Mg1352   2.270       .  S
Mg1321     O1557   2.180   1_556  S
Mg1321     O1327   2.160       .  S
Mg1321     O1807   2.296       .  S
Mg1321     O1823   2.267       .  S
C1322      O1360   1.270       .  A
C1322      O1328   1.271       .  A
O1323      C1330   1.271       .  A
C1325      H1838   1.081       .  S
C1325      O1827   1.231       .  S
C1325      O1340   1.266   1_565  A
O1326      C1349   1.264       .  A
C1329      O1342   1.272       .  A
C1329      O1334   1.271       .  A
C1330      O1357   1.271       .  A
Mg1331     O1338   2.150       .  S
Mg1331     O1583   2.188   1_545  S
Mg1331     O1821   2.295   1_545  S
Mg1331     O1848   2.254   1_545  S
O1333      C1337   1.266       .  A
O1333     Mg1819   2.295       .  S
O1335      C1354   1.271       .  A
O1335     Mg1809   2.267       .  S
O1336      C1356   1.269       .  A
O1338      C1349   1.230       .  S
O1339     Mg1575   2.188   1_556  S
O1339     Mg1358   2.165       .  S
O1339      C1813   1.231       .  S
O1340     Mg1352   2.296       .  S
Mg1341     O1357   2.272       .  S
H1343      C1836   1.081       .  S
O1344     Mg1352   2.158       .  S
H1346      C1349   1.081       .  S
C1348      H1831   1.081       .  S
C1348      O1801   1.233       .  S
H1350      C1813   1.081       .  S
C1354      O1359   1.267   1_556  A
O1355      C1356   1.270       .  A
O1360     Mg1819   2.254       .  S
O1361     Mg1363   2.157       .  S
C1362      H1401   1.081       .  S
C1362      O1375   1.231       .  S
C1362      O1399   1.265       .  A
Mg1363     O1880   2.189   1_545  S
Mg1363     O1407   2.279       .  S
Mg1363     O1891   2.264   1_545  S
Mg1363     O1862   2.297   1_545  S
O1364     Mg1894   2.184       .  S
O1364     Mg1389   2.157       .  S
O1364      C1873   1.233       .  S
O1365      C1396   1.267       .  A
O1365     Mg1389   2.300       .  S
C1366      O1368   1.273       .  A
C1366      O1380   1.272       .  A
O1367      C1395   1.267   1_545  A
O1368     Mg1400   2.278       .  S
Mg1369     O1375   2.149       .  S
Mg1369     O1371   2.274       .  S
C1370      O1408   1.272       .  A
C1370      O1376   1.269       .  A
O1371      C1378   1.270       .  A
H1372      C1873   1.081       .  S
C1373      O1388   1.268   1_455  A
O1374      C1397   1.266       .  A
O1374     Mg1851   2.297       .  S
O1375     Mg1389   2.172       .  S
O1376     Mg1406   2.270       .  S
C1377      O1390   1.271       .  A
C1377      O1382   1.267       .  A
C1378      O1405   1.268       .  A
Mg1379     O1386   2.169       .  S
Mg1379     O1380   2.283       .  S
O1381      C1385   1.267       .  A
O1382     Mg1389   2.263       .  S
O1383      C1402   1.269       .  A
O1384      C1404   1.272       .  A
O1384     Mg1400   2.286       .  S
C1385      H1860   1.081       .  S
C1385      O1852   1.233       .  S
O1386     Mg1400   2.172       .  S
O1386      C1397   1.231       .  S
O1387     Mg1406   2.167       .  S
O1388     Mg1400   2.303       .  S
Mg1389     O1405   2.254       .  S
O1390     Mg1894   2.266       .  S
O1392     Mg1851   2.189       .  S
O1392     Mg1400   2.167       .  S
O1392      C1883   1.232       .  S
H1393      C1883   1.081       .  S
H1394      C1397   1.081       .  S
C1395      H1881   1.081       .  S
C1395      O1880   1.232       .  S
O1399     Mg1894   2.291       .  S
C1402      O1407   1.270       .  A
O1403      C1404   1.271       .  A
O1403     Mg1851   2.264       .  S
Mg1406     O1852   2.184       .  S
Mg1406     O1878   2.266       .  S
Mg1406     O1887   2.291       .  S
C1409      C1410   1.410       .  A
C1409      C1414   1.414       .  A
C1409      H1416   1.082       .  S
C1410      C1411   1.419       .  A
C1411      C1412   1.416       .  A
C1411      N1418   1.431       .  S
C1412      C1413   1.411       .  A
C1412      H1417   1.081       .  S
C1413      C1414   1.429       .  A
C1414      N1415   1.437       .  S
N1415      H1419   1.044       .  S
N1415      H1420   1.041       .  S
N1418      H1421   1.046       .  S
N1418      H1422   1.046       .  S
C1423      C1424   1.405       .  A
C1423      C1428   1.386       .  A
C1423      H1430   1.082       .  S
C1424      C1425   1.410       .  A
C1425      C1426   1.389       .  A
C1425      N1432   1.433       .  S
C1426      C1427   1.403       .  A
C1426      H1431   1.081       .  S
C1427      C1428   1.421       .  A
C1428      N1429   1.440       .  S
N1429      H1433   1.045       .  S
N1429      H1434   1.040       .  S
N1432      H1435   1.046       .  S
N1432      H1436   1.046       .  S
C1437      C1438   1.405       .  A
C1437      C1442   1.393       .  A
C1437      H1444   1.081       .  S
C1438      C1439   1.421       .  A
C1439      C1440   1.387       .  A
C1439      N1446   1.440       .  S
C1440      C1441   1.403       .  A
C1440      H1445   1.082       .  S
C1441      C1442   1.412       .  A
C1442      N1443   1.439       .  S
N1443      H1447   1.046       .  S
N1443      H1448   1.044       .  S
N1446      H1449   1.040       .  S
N1446      H1450   1.045       .  S
C1451      C1452   1.412       .  A
C1451      C1456   1.416       .  A
C1451      H1458   1.081       .  S
C1452      C1453   1.420       .  A
C1453      C1454   1.421       .  A
C1453      N1460   1.436       .  S
C1454      C1455   1.412       .  A
C1454      H1459   1.078       .  S
C1455      C1456   1.418       .  A
C1456      N1457   1.432       .  S
N1457      H1461   1.045       .  S
N1457      H1462   1.045       .  S
N1460      H1463   1.045       .  S
N1460      H1464   1.045       .  S
C1465      C1467   1.564       .  S
C1465      C1469   1.571       .  S
C1465      C1468   1.559       .  S
C1465      C1699   1.561       .  S
C1466      C1470   1.507       .  S
C1466      C1472   1.521       .  S
C1466      C1471   1.522       .  S
C1466      C1682   1.509       .  S
C1467      C1475   1.392       .  A
C1467      C1714   1.391   1_554  A
C1468      C1479   1.386       .  A
C1468      C1715   1.397   1_554  A
C1469      C1483   1.392       .  A
C1469      C1716   1.399   1_554  A
C1470      C1711   1.391       .  A
C1470      C1473   1.366       .  A
C1471      C1712   1.397       .  A
C1471      C1477   1.373       .  A
C1472      C1713   1.399       .  A
C1472      C1480   1.372       .  A
C1473      N1474   1.340       .  A
C1473      H1486   1.083       .  S
N1474      C1719   1.366       .  A
N1474      C1598   1.425       .  S
C1475      N1718   1.366   1_554  A
C1475      H1476   1.081       .  S
C1477      N1722   1.343       .  A
C1477      H1487   1.082       .  S
N1478      C1721   1.343       .  A
N1478      C1479   1.366   1_556  A
N1478      C1806   1.427       .  S
C1479      H1485   1.082       .  S
C1480      N1725   1.343       .  A
C1480      H1482   1.081       .  S
N1481      C1724   1.343       .  A
N1481      C1483   1.365   1_556  A
N1481      C1817   1.429       .  S
C1483      H1484   1.081       .  S
C1488      C1490   1.564       .  S
C1488      C1492   1.558       .  S
C1488      C1491   1.572       .  S
C1488      C1696   1.562       .  S
C1489      C1493   1.507       .  S
C1489      C1495   1.517       .  S
C1489      C1494   1.524       .  S
C1489      C1685   1.507       .  S
C1490      C1498   1.392       .  A
C1490      C1493   1.391       .  A
C1491      C1502   1.393       .  A
C1491      C1494   1.400       .  A
C1492      C1506   1.386       .  A
C1492      C1495   1.396       .  A
C1493      C1496   1.367       .  A
C1494      C1500   1.373       .  A
C1495      C1503   1.370       .  A
C1496      N1497   1.341       .  A
C1496      H1509   1.083       .  S
N1497      C1498   1.365       .  A
N1497      C1646   1.425       .  S
C1498      H1499   1.082       .  S
C1500      N1501   1.342       .  A
C1500      H1510   1.082       .  S
N1501      C1502   1.365       .  A
N1501      C1610   1.430       .  S
C1502      H1508   1.081       .  S
C1503      N1504   1.343       .  A
C1503      H1505   1.082       .  S
N1504      C1506   1.365       .  A
N1504      C1621   1.425       .  S
C1506      H1507   1.082       .  S
C1511      C1513   1.521       .  S
C1511      C1515   1.509       .  S
C1511      C1514   1.520       .  S
C1511      C1671   1.506       .  S
C1512      C1516   1.557       .  S
C1512      C1518   1.564       .  S
C1512      C1517   1.569       .  S
C1512      C1657   1.560       .  S
C1513      C1521   1.372       .  A
C1513      C1760   1.395   1_554  A
C1514      C1525   1.371       .  A
C1514      C1761   1.397   1_554  A
C1515      C1529   1.367       .  A
C1515      C1762   1.392   1_554  A
C1516      C1757   1.395       .  A
C1516      C1519   1.385       .  A
C1517      C1758   1.397       .  A
C1517      C1523   1.391       .  A
C1518      C1759   1.392       .  A
C1518      C1526   1.391       .  A
C1519      N1764   1.364       .  A
C1519      H1532   1.082       .  S
N1520      C1763   1.364   1_554  A
N1520      C1521   1.343       .  A
N1520      C1566   1.425       .  S
C1521      H1522   1.082       .  S
C1523      N1768   1.365       .  A
C1523      H1533   1.081       .  S
N1524      C1767   1.365   1_554  A
N1524      C1525   1.343       .  A
N1524      C1574   1.429       .  S
C1525      H1531   1.081       .  S
C1526      N1771   1.366       .  A
C1526      H1528   1.082       .  S
N1527      C1770   1.366   1_554  A
N1527      C1529   1.341       .  A
N1527      C1600   1.425       .  S
C1529      H1530   1.083       .  S
C1534      C1536   1.515       .  S
C1534      C1538   1.523       .  S
C1534      C1537   1.509       .  S
C1534      C1668   1.505       .  S
C1535      C1539   1.562       .  S
C1535      C1541   1.568       .  S
C1535      C1540   1.563       .  S
C1535      C1654   1.559       .  S
C1536      C1544   1.368       .  A
C1536      C1539   1.396       .  A
C1537      C1548   1.369       .  A
C1537      C1540   1.392       .  A
C1538      C1552   1.372       .  A
C1538      C1541   1.397       .  A
C1539      C1542   1.388       .  A
C1540      C1546   1.391       .  A
C1541      C1549   1.391       .  A
C1542      N1543   1.366       .  A
C1542      H1555   1.082       .  S
N1543      C1544   1.342       .  A
N1543      C1614   1.427       .  S
C1544      H1545   1.081       .  S
C1546      N1547   1.364       .  A
C1546      H1556   1.080       .  S
N1547      C1548   1.340       .  A
N1547      C1622   1.425       .  S
C1548      H1554   1.083       .  S
C1549      N1550   1.366       .  A
C1549      H1551   1.082       .  S
N1550      C1552   1.342       .  A
N1550      C1648   1.429       .  S
C1552      H1553   1.082       .  S
O1557     Mg1559   2.162   1_655  S
C1558      H1597   1.081       .  S
C1558      O1571   1.232       .  S
C1558      O1595   1.267       .  A
Mg1559     O1847   2.260   1_455  S
O1560     Mg1585   2.161       .  S
O1561      C1592   1.268   1_565  A
O1561     Mg1585   2.303       .  S
C1562      N1722   1.427       .  S
C1562      O1564   1.271       .  A
C1562      O1576   1.270       .  A
O1563      C1591   1.267   1_655  A
O1564     Mg1596   2.270       .  S
Mg1565     O1571   2.160   1_545  S
Mg1565     O1811   2.283   1_545  S
C1566      O1604   1.270       .  A
C1566      O1572   1.271   1_554  A
O1567      C1574   1.271       .  A
O1567     Mg1809   2.283   1_564  S
C1569      O1584   1.266       .  A
O1570      C1593   1.264       .  A
O1571     Mg1829   2.163       .  S
O1572     Mg1846   2.275       .  S
C1573      N1725   1.429       .  S
C1573      O1586   1.272       .  A
C1573      O1578   1.271       .  A
C1574      O1601   1.271       .  A
Mg1575     O1582   2.150       .  S
Mg1575     O1820   2.271   1_554  S
O1576     Mg1819   2.271       .  S
O1577      C1581   1.266       .  A
O1578     Mg1829   2.280       .  S
O1579      C1598   1.271       .  A
O1580      C1600   1.269       .  A
O1580     Mg1840   2.272   1_554  S
O1582     Mg1840   2.182   1_554  S
O1582      C1593   1.230       .  S
O1583     Mg1602   2.165       .  S
O1584     Mg1596   2.296       .  S
Mg1585     O1815   2.163   1_554  S
Mg1585     O1822   2.280   1_554  S
Mg1585     O1601   2.272       .  S
O1588     Mg1596   2.158       .  S
H1590      C1593   1.081       .  S
Mg1596     O1826   2.182       .  S
Mg1596     O1824   2.272       .  S
C1598      O1603   1.267       .  A
O1599      C1600   1.270       .  A
Mg1602     O1816   2.275       .  S
O1603     Mg1803   2.260   1_655  S
O1605     Mg1607   2.157       .  S
C1606      H1645   1.081       .  S
C1606      O1619   1.231       .  S
C1606      O1643   1.265       .  A
Mg1607     O1651   2.279       .  S
O1608     Mg1633   2.157       .  S
O1609      C1640   1.267       .  A
O1609     Mg1633   2.300       .  S
C1610      O1612   1.273       .  A
C1610      O1624   1.272       .  A
O1611      C1639   1.267       .  A
O1612     Mg1644   2.278       .  S
Mg1613     O1619   2.149       .  S
Mg1613     O1615   2.274       .  S
C1614      O1652   1.272       .  A
C1614      O1620   1.269       .  A
O1615      C1622   1.270       .  A
C1617      O1632   1.268   1_455  A
O1618      C1641   1.266       .  A
O1619     Mg1633   2.172       .  S
O1620     Mg1650   2.270   1_565  S
C1621      O1634   1.271       .  A
C1621      O1626   1.267       .  A
C1622      O1649   1.268       .  A
Mg1623     O1630   2.169       .  S
Mg1623     O1624   2.283       .  S
O1625      C1629   1.267   1_565  A
O1626     Mg1633   2.263       .  S
O1627      C1646   1.269       .  A
O1628      C1648   1.272       .  A
O1628     Mg1644   2.286       .  S
O1630     Mg1644   2.172       .  S
O1630      C1641   1.231       .  S
O1631     Mg1650   2.167   1_565  S
O1632     Mg1644   2.303       .  S
Mg1633     O1649   2.254       .  S
O1636     Mg1644   2.167       .  S
H1638      C1641   1.081       .  S
C1646      O1651   1.270       .  A
O1647      C1648   1.271       .  A
C1653      C1654   1.410       .  A
C1653      C1658   1.414       .  A
C1653      H1660   1.082       .  S
C1654      C1655   1.419       .  A
C1655      C1656   1.416       .  A
C1655      N1662   1.431       .  S
C1656      C1657   1.411       .  A
C1656      H1661   1.081       .  S
C1657      C1658   1.429       .  A
C1658      N1659   1.437       .  S
N1659      H1663   1.044       .  S
N1659      H1664   1.041       .  S
N1662      H1665   1.046       .  S
N1662      H1666   1.046       .  S
C1667      C1668   1.405       .  A
C1667      C1672   1.386       .  A
C1667      H1674   1.082       .  S
C1668      C1669   1.410       .  A
C1669      C1670   1.389       .  A
C1669      N1676   1.433       .  S
C1670      C1671   1.403       .  A
C1670      H1675   1.081       .  S
C1671      C1672   1.421       .  A
C1672      N1673   1.440       .  S
N1673      H1677   1.045       .  S
N1673      H1678   1.040       .  S
N1676      H1679   1.046       .  S
N1676      H1680   1.046       .  S
C1681      C1682   1.405       .  A
C1681      C1686   1.393       .  A
C1681      H1688   1.081       .  S
C1682      C1683   1.421       .  A
C1683      C1684   1.387       .  A
C1683      N1690   1.440       .  S
C1684      C1685   1.403       .  A
C1684      H1689   1.082       .  S
C1685      C1686   1.412       .  A
C1686      N1687   1.439       .  S
N1687      H1691   1.046       .  S
N1687      H1692   1.044       .  S
N1690      H1693   1.040       .  S
N1690      H1694   1.045       .  S
C1695      C1696   1.412       .  A
C1695      C1700   1.416       .  A
C1695      H1702   1.081       .  S
C1696      C1697   1.420       .  A
C1697      C1698   1.421       .  A
C1697      N1704   1.436       .  S
C1698      C1699   1.412       .  A
C1698      H1703   1.078       .  S
C1699      C1700   1.418       .  A
C1700      N1701   1.432       .  S
N1701      H1705   1.045       .  S
N1701      H1706   1.045       .  S
N1704      H1707   1.045       .  S
N1704      H1708   1.045       .  S
C1709      C1711   1.564       .  S
C1709      C1713   1.571       .  S
C1709      C1712   1.559       .  S
C1709      C1943   1.561       .  S
C1710      C1714   1.507       .  S
C1710      C1716   1.521       .  S
C1710      C1715   1.522       .  S
C1710      C1926   1.509       .  S
C1711      C1719   1.392       .  A
C1712      C1723   1.386       .  A
C1713      C1727   1.392       .  A
C1714      C1717   1.366       .  A
C1715      C1721   1.373       .  A
C1716      C1724   1.372       .  A
C1717      N1718   1.340       .  A
C1717      H1730   1.083       .  S
N1718      C1842   1.425       .  S
C1719      H1720   1.081       .  S
C1721      H1731   1.082       .  S
N1722      C1723   1.366       .  A
C1723      H1729   1.082       .  S
C1724      H1726   1.081       .  S
N1725      C1727   1.365       .  A
C1727      H1728   1.081       .  S
C1732      C1734   1.564       .  S
C1732      C1736   1.558       .  S
C1732      C1735   1.572       .  S
C1732      C1940   1.562       .  S
C1733      C1737   1.507       .  S
C1733      C1739   1.517       .  S
C1733      C1738   1.524       .  S
C1733      C1929   1.507       .  S
C1734      C1742   1.392       .  A
C1734      C1737   1.391       .  A
C1735      C1746   1.393       .  A
C1735      C1738   1.400       .  A
C1736      C1750   1.386       .  A
C1736      C1739   1.396       .  A
C1737      C1740   1.367       .  A
C1738      C1744   1.373       .  A
C1739      C1747   1.370       .  A
C1740      N1741   1.341       .  A
C1740      H1753   1.083       .  S
N1741      C1742   1.365       .  A
N1741      C1890   1.425       .  S
C1742      H1743   1.082       .  S
C1744      N1745   1.342       .  A
C1744      H1754   1.082       .  S
N1745      C1746   1.365       .  A
N1745      C1854   1.430       .  S
C1746      H1752   1.081       .  S
C1747      N1748   1.343       .  A
C1747      H1749   1.082       .  S
N1748      C1750   1.365       .  A
N1748      C1865   1.425       .  S
C1750      H1751   1.082       .  S
C1755      C1757   1.521       .  S
C1755      C1759   1.509       .  S
C1755      C1758   1.520       .  S
C1755      C1915   1.506       .  S
C1756      C1760   1.557       .  S
C1756      C1762   1.564       .  S
C1756      C1761   1.569       .  S
C1756      C1901   1.560       .  S
C1757      C1765   1.372       .  A
C1758      C1769   1.371       .  A
C1759      C1773   1.367       .  A
C1760      C1763   1.385       .  A
C1761      C1767   1.391       .  A
C1762      C1770   1.391       .  A
C1763      H1776   1.082       .  S
N1764      C1765   1.343       .  A
N1764      C1810   1.425       .  S
C1765      H1766   1.082       .  S
C1767      H1777   1.081       .  S
N1768      C1769   1.343       .  A
N1768      C1818   1.429       .  S
C1769      H1775   1.081       .  S
C1770      H1772   1.082       .  S
N1771      C1773   1.341       .  A
N1771      C1844   1.425       .  S
C1773      H1774   1.083       .  S
C1778      C1780   1.515       .  S
C1778      C1782   1.523       .  S
C1778      C1781   1.509       .  S
C1778      C1912   1.505       .  S
C1779      C1783   1.562       .  S
C1779      C1785   1.568       .  S
C1779      C1784   1.563       .  S
C1779      C1898   1.559       .  S
C1780      C1788   1.368       .  A
C1780      C1783   1.396       .  A
C1781      C1792   1.369       .  A
C1781      C1784   1.392       .  A
C1782      C1796   1.372       .  A
C1782      C1785   1.397       .  A
C1783      C1786   1.388       .  A
C1784      C1790   1.391       .  A
C1785      C1793   1.391       .  A
C1786      N1787   1.366       .  A
C1786      H1799   1.082       .  S
N1787      C1788   1.342       .  A
N1787      C1858   1.427       .  S
C1788      H1789   1.081       .  S
C1790      N1791   1.364       .  A
C1790      H1800   1.080       .  S
N1791      C1792   1.340       .  A
N1791      C1866   1.425       .  S
C1792      H1798   1.083       .  S
C1793      N1794   1.366       .  A
C1793      H1795   1.082       .  S
N1794      C1796   1.342       .  A
N1794      C1892   1.429       .  S
C1796      H1797   1.082       .  S
O1801     Mg1803   2.162   1_655  S
C1802      H1841   1.081       .  S
C1802      O1815   1.232       .  S
C1802      O1839   1.267       .  A
O1804     Mg1829   2.161       .  S
O1805      C1836   1.268   1_565  A
O1805     Mg1829   2.303       .  S
C1806      O1808   1.271       .  A
C1806      O1820   1.270       .  A
O1807      C1835   1.267   1_655  A
O1808     Mg1840   2.270       .  S
Mg1809     O1815   2.160   1_545  S
C1810      O1848   1.270       .  A
C1810      O1816   1.271       .  A
O1811      C1818   1.271       .  A
C1813      O1828   1.266       .  A
O1814      C1837   1.264       .  A
C1817      O1830   1.272       .  A
C1817      O1822   1.271       .  A
C1818      O1845   1.271       .  A
Mg1819     O1826   2.150       .  S
O1821      C1825   1.266       .  A
O1823      C1842   1.271       .  A
O1824      C1844   1.269       .  A
O1826      C1837   1.230       .  S
O1827     Mg1846   2.165       .  S
O1828     Mg1840   2.296       .  S
Mg1829     O1845   2.272       .  S
O1832     Mg1840   2.158       .  S
H1834      C1837   1.081       .  S
C1842      O1847   1.267   1_556  A
O1843      C1844   1.270       .  A
O1849     Mg1851   2.157       .  S
C1850      H1889   1.081       .  S
C1850      O1863   1.231       .  S
C1850      O1887   1.265       .  A
Mg1851     O1895   2.279       .  S
O1852     Mg1877   2.157       .  S
O1853      C1884   1.267       .  A
O1853     Mg1877   2.300       .  S
C1854      O1856   1.273       .  A
C1854      O1868   1.272       .  A
O1855      C1883   1.267       .  A
O1856     Mg1888   2.278       .  S
Mg1857     O1863   2.149       .  S
Mg1857     O1859   2.274       .  S
C1858      O1896   1.272       .  A
C1858      O1864   1.269       .  A
O1859      C1866   1.270       .  A
C1861      O1876   1.268   1_455  A
O1862      C1885   1.266       .  A
O1863     Mg1877   2.172       .  S
O1864     Mg1894   2.270   1_565  S
C1865      O1878   1.271       .  A
C1865      O1870   1.267       .  A
C1866      O1893   1.268       .  A
Mg1867     O1874   2.169       .  S
Mg1867     O1868   2.283       .  S
O1869      C1873   1.267   1_565  A
O1870     Mg1877   2.263       .  S
O1871      C1890   1.269       .  A
O1872      C1892   1.272       .  A
O1872     Mg1888   2.286       .  S
O1874     Mg1888   2.172       .  S
O1874      C1885   1.231       .  S
O1875     Mg1894   2.167   1_565  S
O1876     Mg1888   2.303       .  S
Mg1877     O1893   2.254       .  S
O1880     Mg1888   2.167       .  S
H1882      C1885   1.081       .  S
C1890      O1895   1.270       .  A
O1891      C1892   1.271       .  A
C1897      C1898   1.410       .  A
C1897      C1902   1.414       .  A
C1897      H1904   1.082       .  S
C1898      C1899   1.419       .  A
C1899      C1900   1.416       .  A
C1899      N1906   1.431       .  S
C1900      C1901   1.411       .  A
C1900      H1905   1.081       .  S
C1901      C1902   1.429       .  A
C1902      N1903   1.437       .  S
N1903      H1907   1.044       .  S
N1903      H1908   1.041       .  S
N1906      H1909   1.046       .  S
N1906      H1910   1.046       .  S
C1911      C1912   1.405       .  A
C1911      C1916   1.386       .  A
C1911      H1918   1.082       .  S
C1912      C1913   1.410       .  A
C1913      C1914   1.389       .  A
C1913      N1920   1.433       .  S
C1914      C1915   1.403       .  A
C1914      H1919   1.081       .  S
C1915      C1916   1.421       .  A
C1916      N1917   1.440       .  S
N1917      H1921   1.045       .  S
N1917      H1922   1.040       .  S
N1920      H1923   1.046       .  S
N1920      H1924   1.046       .  S
C1925      C1926   1.405       .  A
C1925      C1930   1.393       .  A
C1925      H1932   1.081       .  S
C1926      C1927   1.421       .  A
C1927      C1928   1.387       .  A
C1927      N1934   1.440       .  S
C1928      C1929   1.403       .  A
C1928      H1933   1.082       .  S
C1929      C1930   1.412       .  A
C1930      N1931   1.439       .  S
N1931      H1935   1.046       .  S
N1931      H1936   1.044       .  S
N1934      H1937   1.040       .  S
N1934      H1938   1.045       .  S
C1939      C1940   1.412       .  A
C1939      C1944   1.416       .  A
C1939      H1946   1.081       .  S
C1940      C1941   1.420       .  A
C1941      C1942   1.421       .  A
C1941      N1948   1.436       .  S
C1942      C1943   1.412       .  A
C1942      H1947   1.078       .  S
C1943      C1944   1.418       .  A
C1944      N1945   1.432       .  S
N1945      H1949   1.045       .  S
N1945      H1950   1.045       .  S
N1948      H1951   1.045       .  S
N1948      H1952   1.045       .  S
