geometry optimzed in LAMMPS
_audit_creation_date              2020-12-01 
_audit_creation_method            'lammps2cif' 
_symmetry_space_group_name_H-M    'P1' 
_symmetry_Int_Tables_number       1 
_symmetry_cell_setting            triclinic 
loop_ 
_symmetry_equiv_pos_as_xyz 
  x,y,z 
_cell_length_a                    67.37896298 
_cell_length_b                    66.02489818576383 
_cell_length_c                    66.99555364438407 
_cell_angle_alpha                 90.36422592683584 
_cell_angle_beta                  90.60606034415773 
_cell_angle_gamma                 92.00990948568742 
loop_ 
_atom_site_label 
_atom_site_type_symbol 
_atom_site_fract_x 
_atom_site_fract_y 
_atom_site_fract_z 
_atom_site_charge 
N1          N  0.71468362  0.27048378  0.58736594     0.00200
C2          C  0.69792865  0.26812010  0.59846248     0.02800
C3          C  0.68129756  0.27146768  0.58670375    -0.20100
C4          C  0.68789867  0.27572783  0.56783408    -0.20300
C5          C  0.70831913  0.27507314  0.56861889     0.02700
H6          H  0.66590913  0.27044613  0.59115901     0.16500
H7          H  0.67878424  0.27880500  0.55487905     0.16500
N8          N  0.77022930  0.27136163  0.58605742     0.00200
C9          C  0.78630519  0.27640486  0.59789592     0.02800
C10         C  0.80366873  0.27429979  0.58727627    -0.20100
C11         C  0.79826137  0.26830465  0.56829268    -0.20300
C12         C  0.77783158  0.26666595  0.56788561     0.02700
H13         H  0.81874539  0.27626592  0.59285354     0.16500
H14         H  0.80819253  0.26491403  0.55622203     0.16500
N15         N  0.74158016  0.25590111  0.50741698     0.00200
C16         C  0.73068571  0.27002449  0.51659226     0.02800
C17         C  0.73098721  0.28764381  0.50569967    -0.20100
C18         C  0.74229338  0.28416601  0.48906685    -0.20300
C19         C  0.74880585  0.26449999  0.49037008     0.02700
H20         H  0.72338417  0.30137444  0.50917660     0.16500
H21         H  0.74535023  0.29521198  0.47771266     0.16500
N22         N  0.74434803  0.23601972  0.51467737     0.00200
C23         C  0.73989978  0.21825628  0.50485193     0.02800
C24         C  0.73943992  0.20230745  0.51808035    -0.20100
C25         C  0.74328073  0.21024840  0.53667293    -0.20300
C26         C  0.74650497  0.23080510  0.53429166     0.02700
H27         H  0.73722874  0.18638181  0.51443554     0.16500
H28         H  0.74453527  0.20178326  0.55038605     0.16500
N29         N  0.74934682  0.27139826  0.42553442     0.00200
C30         C  0.75132269  0.28927518  0.41549658     0.02800
C31         C  0.76061813  0.30368109  0.42790704    -0.20100
C32         C  0.76504215  0.29421801  0.44558122    -0.20300
C33         C  0.75771985  0.27446834  0.44399225     0.02700
H34         H  0.76463395  0.31923077  0.42433011     0.16500
H35         H  0.77405420  0.30066993  0.45765554     0.16500
N36         N  0.72680973  0.22026594  0.43134621     0.00200
C37         C  0.72698037  0.20466313  0.41784973     0.02800
C38         C  0.72624635  0.18629138  0.42777669    -0.20100
C39         C  0.72599100  0.19055089  0.44773160    -0.20300
C40         C  0.72650550  0.21141090  0.44960682     0.02700
H41         H  0.72547517  0.17124612  0.42125202     0.16500
H42         H  0.72554194  0.17955247  0.45964549     0.16500
O43         O  0.72190104  0.31841707  0.29944628    -0.70700
O44         O  0.73176499  0.31321638  0.35589695    -0.70800
O45         O  0.72740811  0.34536470  0.32966712    -0.70800
O46         O  0.72636803  0.28754778  0.32517306    -0.70900
O47         O  0.75915213  0.28826615  0.32062097    -0.70800
O48         O  0.75973408  0.34609084  0.32265206    -0.70800
O49         O  0.76432372  0.31564301  0.35031301    -0.70800
O50         O  0.75446155  0.31818646  0.29380014    -0.70800
Ni51       Ni  0.72569785  0.31622337  0.32783177     1.25400
Ni52       Ni  0.76060022  0.31716800  0.32177315     1.25400
C53         C  0.73651094  0.31871791  0.28734552     0.91400
C54         C  0.74975495  0.31257994  0.36224717     0.91400
C55         C  0.74351181  0.35520488  0.32534104     0.91400
C56         C  0.74259816  0.27844608  0.32242185     0.91600
O57         O  0.70944731  0.18153863  0.22478669    -0.70700
O58         O  0.70428683  0.18192660  0.16782411    -0.70800
O59         O  0.70777069  0.15231326  0.19670721    -0.70800
O60         O  0.70579904  0.21035718  0.19675259    -0.70900
O61         O  0.73880573  0.21263697  0.19431541    -0.70800
O62         O  0.74074948  0.15462269  0.19414210    -0.70800
O63         O  0.73723613  0.18485213  0.16518530    -0.70800
O64         O  0.74245495  0.18369616  0.22202215    -0.70800
Ni65       Ni  0.70563467  0.18132009  0.19650323     1.25400
Ni66       Ni  0.74097860  0.18386858  0.19367827     1.25400
C67         C  0.72685102  0.18274664  0.23267149     0.91400
C68         C  0.71983566  0.18528823  0.15730726     0.91400
C69         C  0.72468044  0.14401888  0.19685095     0.91400
C70         C  0.72199889  0.22099807  0.19574755     0.91600
O71         O  0.75782210  0.31886385  0.21857116    -0.70700
O72         O  0.74885080  0.31275783  0.16212271    -0.70800
O73         O  0.75309780  0.34528899  0.18858028    -0.70800
O74         O  0.75359948  0.28738518  0.19260479    -0.70900
O75         O  0.72071219  0.28621405  0.19639657    -0.70800
O76         O  0.72062845  0.34417105  0.19490103    -0.70800
O77         O  0.71615400  0.31317639  0.16681323    -0.70800
O78         O  0.72514730  0.31668367  0.22363476    -0.70800
Ni79       Ni  0.75448762  0.31623033  0.19019674     1.25400
Ni80       Ni  0.71946247  0.31510994  0.19549541     1.25400
C81         C  0.74300702  0.31845962  0.23039522     0.91400
C82         C  0.73102683  0.31081719  0.15530307     0.91400
C83         C  0.73704861  0.35423437  0.19270020     0.91400
C84         C  0.73722499  0.27730940  0.19487386     0.91600
O85         O  0.73497221  0.18477700  0.29528404    -0.70700
O86         O  0.74385033  0.18490305  0.35155978    -0.70800
O87         O  0.73770313  0.15566357  0.32220091    -0.70800
O88         O  0.74086759  0.21357460  0.32343906    -0.70900
O89         O  0.70796029  0.21421328  0.32688603    -0.70800
O90         O  0.70535524  0.15646834  0.32891161    -0.70800
O91         O  0.71132611  0.18758924  0.35642592    -0.70800
O92         O  0.70219755  0.18407080  0.29994127    -0.70800
Ni93       Ni  0.74055267  0.18464747  0.32308434     1.25400
Ni94       Ni  0.70553067  0.18550339  0.32832277     1.25400
C95         C  0.71718528  0.18411637  0.28837713     0.91400
C96         C  0.72919714  0.18767296  0.36316401     0.91400
C97         C  0.72070947  0.14665816  0.32421451     0.91400
C98         C  0.72483829  0.22333347  0.32488750     0.91600
N99         N  0.71400069  0.91495825  0.24371998     0.00200
C100        C  0.69776973  0.90296460  0.24811048     0.02800
C101        C  0.68194533  0.91517447  0.25242210    -0.20100
C102        C  0.68851371  0.93494515  0.25021607    -0.20300
C103        C  0.70811725  0.93445796  0.24452534     0.02700
H104        H  0.66684437  0.91055426  0.25589049     0.16500
H105        H  0.67950253  0.94813805  0.25144277     0.16500
N106        N  0.76769113  0.91437965  0.24971916     0.00200
C107        C  0.78358355  0.90475243  0.24246397     0.02800
C108        C  0.79854758  0.91899820  0.23804158    -0.20100
C109        C  0.79174953  0.93773037  0.24332859    -0.20300
C110        C  0.77293042  0.93431574  0.25085045     0.02700
H111        H  0.81340531  0.91613696  0.23305616     0.16500
H112        H  0.80025346  0.95193555  0.24323318     0.16500
N113        N  0.73741526  0.00317461  0.24733058     0.00200
C114        C  0.72671038  0.98968041  0.23599891     0.02800
C115        C  0.72810065  0.99491518  0.21614596    -0.20100
C116        C  0.74044921  0.01210690  0.21542526    -0.20300
C117        C  0.74605655  0.01685302  0.23492205     0.02700
H118        H  0.72172431  0.98660681  0.20352088     0.16500
H119        H  0.74619773  0.01880435  0.20195729     0.16500
N120        N  0.74336100  0.99968248  0.26718264     0.00200
C121        C  0.75295530  0.98308832  0.27318143     0.02800
C122        C  0.75081526  0.98039839  0.29350803    -0.20100
C123        C  0.73921276  0.99577364  0.30009956    -0.20300
C124        C  0.73477528  0.00732243  0.28361739     0.02700
H125        H  0.75674512  0.96842155  0.30249940     0.16500
H126        H  0.73445617  0.99823034  0.31527148     0.16500
N127        N  0.74412745  0.08095666  0.23370422     0.00200
C128        C  0.73719150  0.09119394  0.21752213     0.02800
C129        C  0.73943858  0.07937987  0.20051840    -0.20100
C130        C  0.74842245  0.06196265  0.20626721    -0.20300
C131        C  0.75107319  0.06319842  0.22665937     0.02700
H132        H  0.73703864  0.08375409  0.18517872     0.16500
H133        H  0.75456277  0.05102527  0.19624430     0.16500
N134        N  0.72671252  0.08153720  0.28578367     0.00200
C135        C  0.72410552  0.09284184  0.30262719     0.02800
C136        C  0.72163963  0.08023916  0.31896165    -0.20100
C137        C  0.72224158  0.06078502  0.31207130    -0.20300
C138        C  0.72513131  0.06185882  0.29170631     0.02700
H139        H  0.72040659  0.08454463  0.33448512     0.16500
H140        H  0.72173622  0.04733037  0.32122956     0.16500
N141        N  0.75610317  0.41532724  0.28271866     0.00200
C142        C  0.75206310  0.40705455  0.30077519     0.02800
C143        C  0.75604484  0.42140165  0.31559889    -0.20100
C144        C  0.76288504  0.43883765  0.30625541    -0.20300
C145        C  0.76278415  0.43470601  0.28599736     0.02700
H146        H  0.75560076  0.41910977  0.33156162     0.16500
H147        H  0.76879423  0.45222618  0.31377057     0.16500
N148        N  0.72864131  0.41374377  0.23728561     0.00200
C149        C  0.73142858  0.40577869  0.21884677     0.02800
C150        C  0.72758212  0.42032901  0.20463129    -0.20100
C151        C  0.72205366  0.43750884  0.21477646    -0.20300
C152        C  0.72280348  0.43304829  0.23490385     0.02700
H153        H  0.72723722  0.41832710  0.18859514     0.16500
H154        H  0.71644444  0.45084180  0.20787347     0.16500
N155        N  0.74615817  0.49367367  0.27242779     0.00200
C156        C  0.74250307  0.50847213  0.28575705     0.02800
C157        C  0.75461104  0.50643671  0.30235567    -0.20100
C158        C  0.76608274  0.48978808  0.29874651    -0.20300
C159        C  0.76019753  0.48192580  0.28030619     0.02700
H160        H  0.75543880  0.51624304  0.31535822     0.16500
H161        H  0.77839954  0.48509049  0.30788627     0.16500
N162        N  0.74041069  0.49370816  0.25216852     0.00200
C163        C  0.72704750  0.48059921  0.24352288     0.02800
C164        C  0.72151629  0.48817080  0.22511537    -0.20100
C165        C  0.73256424  0.50603168  0.22233171    -0.20300
C166        C  0.74405081  0.50906299  0.23936918     0.02700
H167        H  0.70950093  0.48258895  0.21555229     0.16500
H168        H  0.73177500  0.51598634  0.20960352     0.16500
N169        N  0.71692543  0.57669508  0.27301307     0.00200
C170        C  0.69930742  0.58590380  0.27514918     0.02800
C171        C  0.68695372  0.57415109  0.28723571    -0.20100
C172        C  0.69716841  0.55714265  0.29227644    -0.20300
C173        C  0.71551920  0.55905303  0.28335454     0.02700
H174        H  0.67199198  0.57727820  0.29172118     0.16500
H175        H  0.69179142  0.54475627  0.30148689     0.16500
N176        N  0.76740618  0.57983908  0.25136187     0.00200
C177        C  0.78504045  0.59047027  0.25034782     0.02800
C178        C  0.79831343  0.57954781  0.23919147    -0.20100
C179        C  0.78870414  0.56157908  0.23371869    -0.20300
C180        C  0.76981064  0.56209798  0.24139428     0.02700
H181        H  0.81335145  0.58394752  0.23522488     0.16500
H182        H  0.79481000  0.54949670  0.22496993     0.16500
N183        N  0.90741540  0.73157489  0.26354285     0.00200
C184        C  0.89563693  0.71608072  0.27081076     0.02800
C185        C  0.90704485  0.70330776  0.28228648    -0.20100
C186        C  0.92617199  0.71095220  0.28209061    -0.20300
C187        C  0.92612254  0.72801298  0.27045254     0.02700
H188        H  0.90249398  0.68919925  0.28923665     0.16500
H189        H  0.93901612  0.70398338  0.28857388     0.16500
N190        N  0.91101421  0.78094997  0.23648921     0.00200
C191        C  0.89768923  0.79603224  0.23505548     0.02800
C192        C  0.90759413  0.81410510  0.23015107    -0.20100
C193        C  0.92734615  0.81020309  0.22874125    -0.20300
C194        C  0.92903390  0.78990364  0.23261412     0.02700
H195        H  0.90121471  0.82871661  0.22776731     0.16500
H196        H  0.93933071  0.82122148  0.22627732     0.16500
N197        N  0.98506375  0.75158937  0.24146297     0.00200
C198        C  0.99953118  0.75033994  0.22760169     0.02800
C199        C  0.99387704  0.73665314  0.21281513    -0.20100
C200        C  0.97525301  0.72925353  0.21767402    -0.20300
C201        C  0.97008946  0.73843832  0.23540943     0.02700
H202        H  0.00211200  0.73298312  0.19956655     0.16500
H203        H  0.96628988  0.71838885  0.20902986     0.16500
N204        N  0.98648304  0.76368943  0.25894450     0.00200
C205        C  0.97408661  0.77834674  0.26484576     0.02800
C206        C  0.98202470  0.78853725  0.28131036    -0.20100
C207        C  0.00008693  0.78037107  0.28534855    -0.20300
C208        C  0.00250389  0.76518934  0.27142049     0.02700
H209        H  0.97527818  0.80054345  0.28964376     0.16500
H210        H  0.01004733  0.78451955  0.29760096     0.16500
N211        N  0.07244206  0.76114892  0.22472354     0.00200
C212        C  0.08515351  0.76999901  0.21149474     0.02800
C213        C  0.07433815  0.78141823  0.19811917    -0.20100
C214        C  0.05459428  0.77890356  0.20301130    -0.20300
C215        C  0.05385089  0.76602503  0.21912475     0.02700
H216        H  0.07974845  0.78953213  0.18520294     0.16500
H217        H  0.04210618  0.78434102  0.19456058     0.16500
N218        N  0.07378909  0.75167822  0.27842979     0.00200
C219        C  0.08426020  0.74801845  0.29534619     0.02800
C220        C  0.07158252  0.74058389  0.30992298    -0.20100
C221        C  0.05266341  0.74056597  0.30193548    -0.20300
C222        C  0.05435606  0.74806717  0.28277634     0.02700
H223        H  0.07549524  0.73644774  0.32502503     0.16500
H224        H  0.03906098  0.73761557  0.31003407     0.16500
O225        O  0.80170468  0.71054909  0.27727878    -0.70700
O226        O  0.80473891  0.65244028  0.27543441    -0.70800
O227        O  0.83141040  0.68485392  0.28209247    -0.70800
O228        O  0.77586019  0.67888273  0.27105119    -0.70900
O229        O  0.78171905  0.67862488  0.23835127    -0.70800
O230        O  0.83749172  0.68845394  0.24962516    -0.70800
O231        O  0.81284235  0.65439642  0.24328282    -0.70800
O232        O  0.80618419  0.71140434  0.24434717    -0.70800
Ni233      Ni  0.80332616  0.68153929  0.27766431     1.25400
Ni234      Ni  0.80985646  0.68313180  0.24273556     1.25400
C235        C  0.80332396  0.72043861  0.26095472     0.91400
C236        C  0.80836796  0.64388267  0.25868240     0.91400
C237        C  0.84335225  0.68932631  0.26790646     0.91400
C238        C  0.76959524  0.67774726  0.25297332     0.91600
O239        O  0.70519352  0.80843916  0.23856491    -0.70700
O240        O  0.64866529  0.80678601  0.23493966    -0.70800
O241        O  0.67817602  0.83700674  0.23531129    -0.70800
O242        O  0.67662605  0.77861112  0.23890885    -0.70900
O243        O  0.67588710  0.78147884  0.27211174    -0.70800
O244        O  0.67482046  0.83889707  0.26836146    -0.70800
O245        O  0.64658212  0.80752357  0.26814847    -0.70800
O246        O  0.70375102  0.81187874  0.27166242    -0.70800
Ni247      Ni  0.67712549  0.80767160  0.23572154     1.25400
Ni248      Ni  0.67513871  0.81011414  0.27124651     1.25400
C249        C  0.71379908  0.81068835  0.25556071     0.91400
C250        C  0.63833174  0.80570768  0.25083335     0.91400
C251        C  0.67750878  0.84746995  0.25149808     0.91400
C252        C  0.67629451  0.77060105  0.25632735     0.91600
O253        O  0.70284104  0.67936808  0.27684742    -0.70700
O254        O  0.64634094  0.68088108  0.27148612    -0.70800
O255        O  0.67311474  0.65151876  0.28088285    -0.70800
O256        O  0.67648019  0.70769393  0.26751578    -0.70900
O257        O  0.67744260  0.69987764  0.23512132    -0.70800
O258        O  0.67755663  0.64331494  0.24893597    -0.70800
O259        O  0.64851218  0.67089024  0.23974382    -0.70800
O260        O  0.70554222  0.67283590  0.24428040    -0.70800
Ni261      Ni  0.67454764  0.68004805  0.27532076     1.25400
Ni262      Ni  0.67722154  0.67134006  0.24083003     1.25400
C263        C  0.71347454  0.67626677  0.26149188     0.91400
C264        C  0.63819262  0.67696989  0.25449592     0.91400
C265        C  0.67632016  0.63825202  0.26735305     0.91400
C266        C  0.67717532  0.71308122  0.24919510     0.91600
O267        O  0.80479646  0.78327003  0.22603743    -0.70700
O268        O  0.80710511  0.84086190  0.22158181    -0.70800
O269        O  0.83463927  0.81094249  0.22455407    -0.70800
O270        O  0.77767137  0.81222494  0.22359988    -0.70900
O271        O  0.77758474  0.81385384  0.25688820    -0.70800
O272        O  0.83436713  0.81540525  0.25759072    -0.70800
O273        O  0.80522232  0.84380026  0.25470711    -0.70800
O274        O  0.80567133  0.78591384  0.25928789    -0.70800
Ni275      Ni  0.80613256  0.81182537  0.22274288     1.25400
Ni276      Ni  0.80584535  0.81492507  0.25831660     1.25400
C277        C  0.80490607  0.77515868  0.24328455     0.91400
C278        C  0.80507731  0.85171622  0.23727026     0.91400
C279        C  0.84377501  0.81220115  0.24142456     0.91400
C280        C  0.76831216  0.81282157  0.24014479     0.91600
N281        N  0.57339785  0.71273866  0.25407159     0.00200
C282        C  0.58495430  0.69649714  0.25731477     0.02800
C283        C  0.57297569  0.67945032  0.26091535    -0.20100
C284        C  0.55363240  0.68521671  0.25939592    -0.20300
C285        C  0.55423529  0.70559717  0.25492190     0.02700
H286        H  0.57773296  0.66429754  0.26402631     0.16500
H287        H  0.54052190  0.67532275  0.26026771     0.16500
N288        N  0.57251703  0.76806367  0.25922618     0.00200
C289        C  0.58416251  0.78398787  0.25284053     0.02800
C290        C  0.57205737  0.79949770  0.24676992    -0.20100
C291        C  0.55273076  0.79303079  0.24991839    -0.20300
C292        C  0.55346247  0.77385991  0.25784501     0.02700
H293        H  0.57651308  0.81449572  0.24179521     0.16500
H294        H  0.53968617  0.80198652  0.24811818     0.16500
N295        N  0.48438180  0.72635557  0.25866660     0.00200
C296        C  0.49969771  0.71606992  0.25079625     0.02800
C297        C  0.49246230  0.69709412  0.24458519    -0.20100
C298        C  0.47292578  0.69511507  0.25039027    -0.20300
C299        C  0.46861410  0.71302652  0.25977221     0.02700
H300        H  0.50133867  0.68463859  0.23978711     0.16500
H301        H  0.46393394  0.68120613  0.25032705     0.16500
N302        N  0.48402783  0.74742257  0.26344024     0.00200
C303        C  0.46746301  0.75833346  0.26675606     0.02800
C304        C  0.47272558  0.77600922  0.27682867    -0.20100
C305        C  0.49309291  0.77670694  0.27849050    -0.20300
C306        C  0.49985793  0.75941448  0.26940326     0.02700
H307        H  0.46307295  0.78827996  0.28032872     0.16500
H308        H  0.50205344  0.78995021  0.28290474     0.16500
N309        N  0.39924913  0.71855607  0.28038394     0.00200
C310        C  0.38939067  0.72023986  0.29794672     0.02800
C311        C  0.40168029  0.71447821  0.31354226    -0.20100
C312        C  0.41946966  0.70932877  0.30534416    -0.20300
C313        C  0.41753985  0.71191102  0.28500071     0.02700
H314        H  0.39845062  0.71453959  0.32931903     0.16500
H315        H  0.43243131  0.70440140  0.31338522     0.16500
N316        N  0.40666049  0.74356519  0.23265626     0.00200
C317        C  0.39550025  0.74255956  0.21547808     0.02800
C318        C  0.40784741  0.74425114  0.19911075    -0.20100
C319        C  0.42693649  0.74636029  0.20627238    -0.20300
C320        C  0.42598477  0.74616803  0.22680938     0.02700
H321        H  0.40360818  0.74348627  0.18349937     0.16500
H322        H  0.44023618  0.74757260  0.19736900     0.16500
O323        O  0.30537484  0.75296622  0.29080876    -0.70700
O324        O  0.30772357  0.76179710  0.34712499    -0.70800
O325        O  0.33412171  0.74972914  0.31813362    -0.70800
O326        O  0.27956696  0.76478129  0.31864813    -0.70900
O327        O  0.27043800  0.73216682  0.32188442    -0.70800
O328        O  0.32471352  0.71782996  0.32506830    -0.70800
O329        O  0.29639815  0.73003941  0.35185331    -0.70800
O330        O  0.29762383  0.72021329  0.29554673    -0.70800
Ni331      Ni  0.30714637  0.75849401  0.31862333     1.25400
Ni332      Ni  0.29707436  0.72388477  0.32385995     1.25400
C333        C  0.30128567  0.73515635  0.28394956     0.91400
C334        C  0.30081107  0.74784347  0.35858707     0.91400
C335        C  0.33822844  0.73107562  0.32049501     0.91400
C336        C  0.26604844  0.75077132  0.32000728     0.91600
O337        O  0.20115943  0.74169933  0.19020369    -0.70700
O338        O  0.14492940  0.75098688  0.19195623    -0.70800
O339        O  0.17257432  0.74634837  0.16205653    -0.70800
O340        O  0.17366330  0.74605372  0.21918681    -0.70900
O341        O  0.17857409  0.77966953  0.21929999    -0.70800
O342        O  0.18073029  0.77940212  0.16218954    -0.70800
O343        O  0.15150884  0.78427001  0.19008634    -0.70800
O344        O  0.20698690  0.77516987  0.19177438    -0.70800
Ni345      Ni  0.17279572  0.74503091  0.19072698     1.25400
Ni346      Ni  0.17959321  0.78080330  0.19079156     1.25400
C347        C  0.21324860  0.75715860  0.19097087     0.91400
C348        C  0.13913081  0.76930581  0.19214758     0.91400
C349        C  0.17766696  0.76261705  0.15279713     0.91400
C350        C  0.17592034  0.76291970  0.22858724     0.91600
O351        O  0.20337014  0.76324674  0.31955053    -0.70700
O352        O  0.14700823  0.77054582  0.32023976    -0.70800
O353        O  0.17723785  0.76903016  0.34849988    -0.70800
O354        O  0.17422650  0.76522936  0.29186109    -0.70900
O355        O  0.16943517  0.73167515  0.29358205    -0.70800
O356        O  0.17103874  0.73570568  0.35091263    -0.70800
O357        O  0.14204652  0.73697310  0.32171507    -0.70800
O358        O  0.19772811  0.72984189  0.32223327    -0.70800
Ni359      Ni  0.17552478  0.76824701  0.32005170     1.25400
Ni360      Ni  0.16978162  0.73236963  0.32227706     1.25400
C361        C  0.20966133  0.74519913  0.32087315     0.91400
C362        C  0.13536951  0.75472802  0.31982784     0.91400
C363        C  0.17580846  0.75291422  0.35894605     0.91400
C364        C  0.17174406  0.74791775  0.28336285     0.91600
O365        O  0.30316317  0.72684038  0.22065153    -0.70700
O366        O  0.30544777  0.72090372  0.16388282    -0.70800
O367        O  0.33316639  0.72597284  0.19481171    -0.70800
O368        O  0.27595632  0.72194346  0.19088551    -0.70900
O369        O  0.27561681  0.75562767  0.18897915    -0.70800
O370        O  0.33225220  0.75925809  0.18957041    -0.70800
O371        O  0.30292852  0.75434114  0.16067141    -0.70800
O372        O  0.30389161  0.76048713  0.21729190    -0.70800
Ni373      Ni  0.30457733  0.72265586  0.19255359     1.25400
Ni374      Ni  0.30376123  0.75859755  0.18892574     1.25400
C375        C  0.30328846  0.74469325  0.22821647     0.91400
C376        C  0.30287347  0.73652910  0.15302237     0.91400
C377        C  0.34197718  0.74348369  0.19375588     0.91400
C378        C  0.26640553  0.73836259  0.18982738     0.91600
N379        N  0.26251877  0.75057072  0.42245644     0.00200
C380        C  0.27937390  0.74951004  0.41143590     0.02800
C381        C  0.29580007  0.74846769  0.42395013    -0.20100
C382        C  0.28900163  0.74892640  0.44311425    -0.20300
C383        C  0.26862932  0.75001292  0.44194813     0.02700
H384        H  0.31113458  0.74700126  0.41970893     0.16500
H385        H  0.29802088  0.74857377  0.45656469     0.16500
N386        N  0.21510890  0.77633297  0.41911660     0.00200
C387        C  0.19813151  0.77101818  0.40879098     0.02800
C388        C  0.18167857  0.77654206  0.41946896    -0.20100
C389        C  0.18857933  0.78547359  0.43678907    -0.20300
C390        C  0.20903710  0.78536068  0.43633657     0.02700
H391        H  0.16624506  0.77494685  0.41491548     0.16500
H392        H  0.17955470  0.79120973  0.44869573     0.16500
N393        N  0.23302246  0.76819782  0.49519905     0.00200
C394        C  0.22435744  0.76157921  0.51230131     0.02800
C395        C  0.20990065  0.74681124  0.50760698    -0.20100
C396        C  0.21137644  0.74261467  0.48756476    -0.20300
C397        C  0.22651839  0.75505922  0.48054300     0.02700
H398        H  0.20198606  0.73723210  0.51814183     0.16500
H399        H  0.20424690  0.72988573  0.47975598     0.16500
N400        N  0.24486213  0.78647386  0.49308863     0.00200
C401        C  0.25062631  0.79575864  0.47582001     0.02800
C402        C  0.26475556  0.81085379  0.47984634    -0.20100
C403        C  0.26653110  0.81214464  0.50028203    -0.20300
C404        C  0.25348343  0.79772295  0.50816363     0.02700
H405        H  0.27117571  0.82145985  0.46926450     0.16500
H406        H  0.27411685  0.82439523  0.50841896     0.16500
N407        N  0.23817097  0.75278973  0.58465454     0.00200
C408        C  0.24051452  0.73547780  0.59517074     0.02800
C409        C  0.24057078  0.71898750  0.58226431    -0.20100
C410        C  0.23774972  0.72630824  0.56335606    -0.20300
C411        C  0.23602296  0.74700543  0.56526431     0.02700
H412        H  0.24209398  0.70323455  0.58616632     0.16500
H413        H  0.23585323  0.71734749  0.54983842     0.16500
N414        N  0.24731568  0.80740306  0.58141706     0.00200
C415        C  0.24180708  0.82299766  0.59332451     0.02800
C416        C  0.23596158  0.83892724  0.58139161    -0.20100
C417        C  0.23824897  0.83301146  0.56184058    -0.20300
C418        C  0.24552264  0.81376118  0.56231298     0.02700
H419        H  0.23176604  0.85384494  0.58613417     0.16500
H420        H  0.23621464  0.84231525  0.54878434     0.16500
N421        N  0.25501641  0.74028181  0.91613851     0.00200
C422        C  0.26300297  0.72489489  0.90557657     0.02800
C423        C  0.26836147  0.70951419  0.91833242    -0.20100
C424        C  0.26323545  0.71529920  0.93719775    -0.20300
C425        C  0.25488864  0.73399555  0.93547275     0.02700
H426        H  0.27439835  0.69510026  0.91428538     0.16500
H427        H  0.26400728  0.70611297  0.95049258     0.16500
N428        N  0.24130141  0.79421941  0.91977304     0.00200
C429        C  0.24025810  0.81047190  0.90735422     0.02800
C430        C  0.23900851  0.82812565  0.91853615    -0.20100
C431        C  0.23939470  0.82273044  0.93823076    -0.20300
C432        C  0.24087841  0.80194006  0.93862436     0.02700
H433        H  0.23789633  0.84341691  0.91302091     0.16500
H434        H  0.23959236  0.83302052  0.95087569     0.16500
N435        N  0.23590489  0.75874368  0.00210999     0.00200
C436        C  0.22153267  0.75328987  0.01517521     0.02800
C437        C  0.21088846  0.73646619  0.00804786    -0.20100
C438        C  0.21917479  0.73142429  0.99001285    -0.20300
C439        C  0.23459498  0.74537502  0.98678022     0.02700
H440        H  0.19832145  0.72886278  0.01505774     0.16500
H441        H  0.21479094  0.71864025  0.98057744     0.16500
N442        N  0.24971750  0.77513454  0.00436933     0.00200
C443        C  0.25032677  0.79232097  0.99343597     0.02800
C444        C  0.26186929  0.80711669  0.00315065    -0.20100
C445        C  0.26859307  0.79866181  0.02062529    -0.20300
C446        C  0.26075305  0.77904693  0.02098815     0.02700
H447        H  0.26486864  0.82247555  0.99818243     0.16500
H448        H  0.27825292  0.80594846  0.03172314     0.16500
N449        N  0.21364451  0.76469535  0.08791295     0.00200
C450        C  0.19727891  0.76758969  0.09923191     0.02800
C451        C  0.18061662  0.76878334  0.08700933    -0.20100
C452        C  0.18682070  0.76652366  0.06772163    -0.20300
C453        C  0.20704123  0.76395271  0.06868977     0.02700
H454        H  0.16546697  0.77090420  0.09156361     0.16500
H455        H  0.17743679  0.76584000  0.05450482     0.16500
N456        N  0.26713833  0.75329889  0.09017863     0.00200
C457        C  0.28217725  0.74433556  0.10013796     0.02800
C458        C  0.29775287  0.74092017  0.08732037    -0.20100
C459        C  0.29226033  0.74804204  0.06898626    -0.20300
C460        C  0.27360182  0.75568770  0.07115580     0.02700
H461        H  0.31220640  0.73532032  0.09106383     0.16500
H462        H  0.30148670  0.74890619  0.05587100     0.16500
N463        N  0.23532155  0.94666793  0.72777189     0.00200
C464        C  0.24183184  0.93601373  0.71171811     0.02800
C465        C  0.24771708  0.94949302  0.69686069    -0.20100
C466        C  0.24444149  0.96868650  0.70377339    -0.20300
C467        C  0.23635524  0.96658649  0.72244221     0.02700
H468        H  0.25299636  0.94603225  0.68209638     0.16500
H469        H  0.24686753  0.98266044  0.69565109     0.16500
N470        N  0.24245481  0.93808871  0.78153903     0.00200
C471        C  0.23930220  0.92527008  0.79717150     0.02800
C472        C  0.23599868  0.93654434  0.81432038    -0.20100
C473        C  0.23742108  0.95666902  0.80916905    -0.20300
C474        C  0.24163717  0.95721110  0.78906638     0.02700
H475        H  0.23391103  0.93091996  0.82930740     0.16500
H476        H  0.23665404  0.96946498  0.81927157     0.16500
N477        N  0.23243256  0.02395459  0.76069800     0.00200
C478        C  0.24513115  0.01243309  0.77090561     0.02800
C479        C  0.26412859  0.02084979  0.76954670    -0.20100
C480        C  0.26275733  0.03827272  0.75818829    -0.20300
C481        C  0.24293154  0.03981534  0.75281756     0.02700
H482        H  0.27752299  0.01499025  0.77601957     0.16500
H483        H  0.27515944  0.04789387  0.75380556     0.16500
N484        N  0.21182684  0.02001708  0.75840732     0.00200
C485        C  0.20251457  0.00275068  0.75134936     0.02800
C486        C  0.18224891  0.00406391  0.75391694    -0.20100
C487        C  0.17911705  0.02257634  0.76280465    -0.20300
C488        C  0.19754360  0.03207822  0.76532914     0.02700
H489        H  0.17093569  0.99264145  0.75000654     0.16500
H490        H  0.16499328  0.02820427  0.76747557     0.16500
N491        N  0.20496578  0.10699817  0.77186517     0.00200
C492        C  0.19562691  0.12096868  0.78312356     0.02800
C493        C  0.18488601  0.11100724  0.79796737    -0.20100
C494        C  0.18723211  0.09057451  0.79530306    -0.20300
C495        C  0.19925014  0.08850776  0.77892703     0.02700
H496        H  0.17514985  0.11746912  0.80882224     0.16500
H497        H  0.17955069  0.07857433  0.80337856     0.16500
N498        N  0.25544234  0.10469069  0.75014922     0.00200
C499        C  0.27430375  0.11295529  0.74973046     0.02800
C500        C  0.28679155  0.09958972  0.74055497    -0.20100
C501        C  0.27541888  0.08266241  0.73533704    -0.20300
C502        C  0.25640150  0.08578124  0.74184827     0.02700
H503        H  0.30218564  0.10230615  0.73665597     0.16500
H504        H  0.28021970  0.07007745  0.72638205     0.16500
O505        O  0.26906623  0.84461686  0.71158536    -0.70700
O506        O  0.26045277  0.84437473  0.65461827    -0.70800
O507        O  0.26375312  0.87390980  0.68418764    -0.70800
O508        O  0.26644340  0.81632606  0.68246287    -0.70900
O509        O  0.23355448  0.81331683  0.68588354    -0.70800
O510        O  0.23136453  0.87150015  0.69067351    -0.70800
O511        O  0.22774330  0.84355227  0.65955202    -0.70800
O512        O  0.23635012  0.84059769  0.71566615    -0.70800
Ni513      Ni  0.26608613  0.84506866  0.68296176     1.25400
Ni514      Ni  0.23104684  0.84225219  0.68796749     1.25400
C515        C  0.25397554  0.84183128  0.72287802     0.91400
C516        C  0.24257136  0.84291326  0.64781763     0.91400
C517        C  0.24758355  0.88215346  0.68911711     0.91400
C518        C  0.25057720  0.80535929  0.68403519     0.91600
O519        O  0.22878100  0.72267543  0.81976084    -0.70700
O520        O  0.24025502  0.66595249  0.81617077    -0.70800
O521        O  0.23938419  0.69456566  0.84662761    -0.70800
O522        O  0.22938397  0.69460382  0.79027692    -0.70900
O523        O  0.26155568  0.70174807  0.78524106    -0.70800
O524        O  0.27098250  0.70434579  0.84167996    -0.70800
O525        O  0.27236658  0.67450346  0.81277574    -0.70800
O526        O  0.26059974  0.73054576  0.81364061    -0.70800
Ni527      Ni  0.23330895  0.69404920  0.81851631     1.25400
Ni528      Ni  0.26753063  0.70293050  0.81320664     1.25400
C529        C  0.24286649  0.73588173  0.81690407     0.91400
C530        C  0.25823207  0.66104292  0.81308399     0.91400
C531        C  0.25639917  0.70080403  0.85339511     0.91400
C532        C  0.24383518  0.69843785  0.77853451     0.91600
O533        O  0.23217442  0.70619757  0.71581078    -0.70700
O534        O  0.22385952  0.70953706  0.65921341    -0.70800
O535        O  0.23049421  0.67920762  0.68593501    -0.70800
O536        O  0.22504297  0.73641394  0.68965525    -0.70900
O537        O  0.25770067  0.74111695  0.68554935    -0.70800
O538        O  0.26312811  0.68345950  0.68123560    -0.70800
O539        O  0.25646521  0.71478863  0.65507402    -0.70800
O540        O  0.26482032  0.71061530  0.71131538    -0.70800
Ni541      Ni  0.22672949  0.70765199  0.68774665     1.25400
Ni542      Ni  0.26171213  0.71260162  0.68309356     1.25400
C543        C  0.24998251  0.70753695  0.72275268     0.91400
C544        C  0.23874959  0.71364934  0.64800017     0.91400
C545        C  0.24767445  0.67190785  0.68388023     0.91400
C546        C  0.24037708  0.74818935  0.68796230     0.91600
O547        O  0.26471494  0.80611537  0.81500855    -0.70700
O548        O  0.25599217  0.86328866  0.81410261    -0.70800
O549        O  0.26143022  0.83463849  0.84360394    -0.70800
O550        O  0.25955839  0.83443901  0.78649982    -0.70900
O551        O  0.22669051  0.82898849  0.78748473    -0.70800
O552        O  0.22902622  0.82653638  0.84455350    -0.70800
O553        O  0.22342205  0.85674562  0.81670849    -0.70800
O554        O  0.23196693  0.79969712  0.81493780    -0.70800
Ni555      Ni  0.26160789  0.83488390  0.81489074     1.25400
Ni556      Ni  0.22659247  0.82785916  0.81600044     1.25400
C557        C  0.24976778  0.79356860  0.81500438     0.91400
C558        C  0.23812064  0.86933876  0.81431818     0.91400
C559        C  0.24586189  0.82931474  0.85337688     0.91400
C560        C  0.24269710  0.83217309  0.77768292     0.91600
N561        N  0.24611840  0.60425453  0.71662105     0.00200
C562        C  0.24115775  0.61804288  0.70260531     0.02800
C563        C  0.22844809  0.60905859  0.68852725    -0.20100
C564        C  0.22628953  0.58897774  0.69347262    -0.20300
C565        C  0.23783550  0.58618652  0.71039823     0.02700
H566        H  0.22171757  0.61620833  0.67577087     0.16500
H567        H  0.21804094  0.57748495  0.68492394     0.16500
N568        N  0.26766943  0.60186365  0.76830909     0.00200
C569        C  0.26754964  0.61002742  0.78706016     0.02800
C570        C  0.28006806  0.59933297  0.79942331    -0.20100
C571        C  0.28817620  0.58447588  0.78793821    -0.20300
C572        C  0.28005151  0.58602964  0.76907312     0.02700
H573        H  0.28366106  0.60226028  0.81495848     0.16500
H574        H  0.29938057  0.57412273  0.79266718     0.16500
N575        N  0.25954237  0.52679056  0.74338635     0.00200
C576        C  0.25008353  0.51420255  0.75655972     0.02800
C577        C  0.25240158  0.52223529  0.77558110    -0.20100
C578        C  0.26407760  0.53976547  0.77410322    -0.20300
C579        C  0.26868898  0.54194455  0.75414229     0.02700
H580        H  0.24713656  0.51544472  0.78928868     0.16500
H581        H  0.26968371  0.54872220  0.78656613     0.16500
N582        N  0.26380185  0.52236600  0.72329867     0.00200
C583        C  0.25731658  0.53176862  0.70654436     0.02800
C584        C  0.26293573  0.52082945  0.68992980    -0.20100
C585        C  0.27323587  0.50455346  0.69661849    -0.20300
C586        C  0.27370404  0.50606544  0.71715317     0.02700
H587        H  0.26003436  0.52445209  0.67445960     0.16500
H588        H  0.27978114  0.49300854  0.68751027     0.16500
N589        N  0.28183419  0.43733507  0.74255340     0.00200
C590        C  0.29719880  0.42629036  0.74934281     0.02800
C591        C  0.31405223  0.43888843  0.75175035    -0.20100
C592        C  0.30911367  0.45789431  0.74576760    -0.20300
C593        C  0.28949178  0.45636305  0.73981187     0.02700
H594        H  0.32887485  0.43462334  0.75589838     0.16500
H595        H  0.31921942  0.47088296  0.74423446     0.16500
N596        N  0.22841709  0.44780241  0.73812044     0.00200
C597        C  0.21321761  0.43483570  0.73205355     0.02800
C598        C  0.19892286  0.44565025  0.72201160    -0.20100
C599        C  0.20532329  0.46557188  0.72194136    -0.20300
C600        C  0.22309601  0.46669142  0.73224367     0.02700
H601        H  0.18480866  0.44001654  0.71602406     0.16500
H602        H  0.19752323  0.47806907  0.71553186     0.16500
O603        O  0.31271081  0.30460437  0.74696292    -0.70700
O604        O  0.31559395  0.36252005  0.74455991    -0.70800
O605        O  0.34282368  0.33177386  0.74701785    -0.70800
O606        O  0.28638530  0.33431919  0.74426768    -0.70900
O607        O  0.28522813  0.33617671  0.77752278    -0.70800
O608        O  0.34192221  0.33366991  0.78027683    -0.70800
O609        O  0.31513605  0.36405539  0.77785237    -0.70800
O610        O  0.31159122  0.30632620  0.78022898    -0.70800
Ni611      Ni  0.31453682  0.33335424  0.74450241     1.25400
Ni612      Ni  0.31349611  0.33519249  0.78016331     1.25400
C613        C  0.31176357  0.29601819  0.76403242     0.91400
C614        C  0.31460021  0.37272245  0.76085029     0.91400
C615        C  0.35146450  0.33093012  0.76410024     0.91400
C616        C  0.27657312  0.33576196  0.76041123     0.91600
O617        O  0.21275074  0.21621223  0.79376360    -0.70700
O618        O  0.15640069  0.22092366  0.79855234    -0.70800
O619        O  0.18252064  0.18975369  0.80081558    -0.70800
O620        O  0.18702381  0.24687834  0.79150343    -0.70900
O621        O  0.18330933  0.24106698  0.75880217    -0.70800
O622        O  0.17917152  0.18389659  0.76810168    -0.70800
O623        O  0.15261425  0.21569064  0.76579134    -0.70800
O624        O  0.20899085  0.21048643  0.76105907    -0.70800
Ni625      Ni  0.18473495  0.21856781  0.79733797     1.25400
Ni626      Ni  0.18077536  0.21247932  0.76229145     1.25400
C627        C  0.22008716  0.21240519  0.77665288     0.91400
C628        C  0.14544720  0.22049733  0.78278790     0.91400
C629        C  0.18152316  0.17743338  0.78595374     0.91400
C630        C  0.18556957  0.25332677  0.77360377     0.91600
O631        O  0.21419669  0.33742649  0.72458735    -0.70700
O632        O  0.15729635  0.33869522  0.72398315    -0.70800
O633        O  0.18817223  0.36691036  0.71851919    -0.70800
O634        O  0.18398124  0.31023230  0.72976811    -0.70900
O635        O  0.18335130  0.31732478  0.76238475    -0.70800
O636        O  0.19042047  0.37403653  0.75107109    -0.70800
O637        O  0.15804048  0.34752952  0.75619616    -0.70800
O638        O  0.21432951  0.34325647  0.75744650    -0.70800
Ni639      Ni  0.18581061  0.33820011  0.72300131     1.25400
Ni640      Ni  0.18639959  0.34588415  0.75792623     1.25400
C641        C  0.22348695  0.33956996  0.74128137     0.91400
C642        C  0.14832952  0.34243532  0.74029541     0.91400
C643        C  0.19147770  0.37963362  0.73281538     0.91400
C644        C  0.18322484  0.30450391  0.74792910     0.91600
O645        O  0.31229074  0.23158494  0.76753199    -0.70700
O646        O  0.30903007  0.17352748  0.77055754    -0.70800
O647        O  0.33960626  0.20317090  0.76644571    -0.70800
O648        O  0.28285775  0.20349174  0.77172530    -0.70900
O649        O  0.27932332  0.20234908  0.73857226    -0.70800
O650        O  0.33585633  0.19994373  0.73346088    -0.70800
O651        O  0.30457977  0.17190778  0.73753493    -0.70800
O652        O  0.30961826  0.22962362  0.73432682    -0.70800
Ni653      Ni  0.31119522  0.20284094  0.77026872     1.25400
Ni654      Ni  0.30734636  0.20076288  0.73480203     1.25400
C655        C  0.31128541  0.24005414  0.75042003     0.91400
C656        C  0.30470973  0.16333167  0.75461586     0.91400
C657        C  0.34705418  0.20278619  0.74891222     0.91400
C658        C  0.27186234  0.20361766  0.75600413     0.91600
N659        N  0.72037951  0.24727859  0.91963747     0.00200
C660        C  0.70236752  0.24983748  0.91076633     0.02800
C661        C  0.68746496  0.24611466  0.92454600    -0.20100
C662        C  0.69657646  0.24111229  0.94222070    -0.20300
C663        C  0.71675511  0.24180388  0.93878057     0.02700
H664        H  0.67161659  0.24698693  0.92218420     0.16500
H665        H  0.68923240  0.23703822  0.95598552     0.16500
N666        N  0.76869297  0.27249372  0.92104304     0.00200
C667        C  0.78553941  0.26943124  0.91048963     0.02800
C668        C  0.80179624  0.27067217  0.92342640    -0.20100
C669        C  0.79466893  0.27446021  0.94225669    -0.20300
C670        C  0.77430652  0.27563115  0.94038086     0.02700
H671        H  0.81730370  0.26962567  0.91971575     0.16500
H672        H  0.80347825  0.27669767  0.95574147     0.16500
N673        N  0.74581807  0.24408168  0.00702809     0.00200
C674        C  0.74543623  0.23027767  0.02203012     0.02800
C675        C  0.74440305  0.21100336  0.01374528    -0.20100
C676        C  0.74238457  0.21316815  0.99335069    -0.20300
C677        C  0.74224229  0.23372477  0.98968199     0.02700
H678        H  0.74163190  0.19701668  0.02175661     0.16500
H679        H  0.73790031  0.20116843  0.98299856     0.16500
N680        N  0.74872653  0.26548914  0.00892204     0.00200
C681        C  0.75215793  0.27604592  0.02623946     0.02800
C682        C  0.75416005  0.29643606  0.02161749    -0.20100
C683        C  0.75415210  0.29797491  0.00106344    -0.20300
C684        C  0.75220964  0.27848806  0.99354369     0.02700
H685        H  0.75958868  0.30834319  0.03165594     0.16500
H686        H  0.75924990  0.31123131  0.99290528     0.16500
N687        N  0.73762585  0.22558210  0.09616098     0.00200
C688        C  0.72495376  0.21329037  0.10672280     0.02800
C689        C  0.70906157  0.20705832  0.09461650    -0.20100
C690        C  0.71274107  0.21469043  0.07592184    -0.20300
C691        C  0.73079936  0.22528091  0.07697850     0.02700
H692        H  0.69675599  0.19688172  0.09831985     0.16500
H693        H  0.70438227  0.21067883  0.06250129     0.16500
N694        N  0.74689144  0.27035198  0.09435112     0.00200
C695        C  0.73651079  0.28514464  0.10331731     0.02800
C696        C  0.72872759  0.29755556  0.08878472    -0.20100
C697        C  0.73589313  0.29111980  0.07063417    -0.20300
C698        C  0.74785185  0.27499910  0.07462287     0.02700
H699        H  0.72068596  0.31124344  0.09114470     0.16500
H700        H  0.73433702  0.29902774  0.05669759     0.16500
N701        N  0.41111270  0.28962387  0.75082461     0.00200
C702        C  0.40173825  0.30708356  0.75505186     0.02800
C703        C  0.41526658  0.32343421  0.75425072    -0.20100
C704        C  0.43326379  0.31593156  0.74909849    -0.20300
C705        C  0.43018920  0.29529686  0.74682103     0.02700
H706        H  0.41221773  0.33933554  0.75586694     0.16500
H707        H  0.44670140  0.32473503  0.74592843     0.16500
N708        N  0.41688780  0.23444056  0.75695982     0.00200
C709        C  0.40306259  0.21932980  0.75238274     0.02800
C710        C  0.41273651  0.20208427  0.74647532    -0.20100
C711        C  0.43272548  0.20655565  0.74731599    -0.20300
C712        C  0.43502898  0.22620075  0.75410569     0.02700
H713        H  0.40615240  0.18740995  0.74254258     0.16500
H714        H  0.44442690  0.19640065  0.74362161     0.16500
N715        N  0.49325223  0.26121135  0.74073496     0.00200
C716        C  0.50309745  0.25127362  0.72634381     0.02800
C717        C  0.49369156  0.25365480  0.70812215    -0.20100
C718        C  0.47768458  0.26567002  0.71148949    -0.20300
C719        C  0.47796220  0.27023567  0.73167805     0.02700
H720        H  0.49822427  0.24768012  0.69386519     0.16500
H721        H  0.46727990  0.27083599  0.70037809     0.16500
N722        N  0.49655107  0.26001140  0.76152003     0.00200
C723        C  0.48366414  0.25259196  0.77543301     0.02800
C724        C  0.49239383  0.25505670  0.79411078    -0.20100
C725        C  0.51082408  0.26455263  0.79151518    -0.20300
C726        C  0.51287660  0.26779242  0.77124986     0.02700
H727        H  0.48567267  0.25129932  0.80827304     0.16500
H728        H  0.52052852  0.26996916  0.80341688     0.16500
N729        N  0.57634414  0.25014470  0.72695552     0.00200
C730        C  0.58910411  0.24334521  0.71304801     0.02800
C731        C  0.57902247  0.22935294  0.70067928    -0.20100
C732        C  0.55955255  0.22833905  0.70670538    -0.20300
C733        C  0.55819192  0.24164550  0.72255285     0.02700
H734        H  0.58456577  0.22154692  0.68777965     0.16500
H735        H  0.54739216  0.22045261  0.69893151     0.16500
N736        N  0.57552150  0.26765613  0.77989138     0.00200
C737        C  0.58491403  0.26756727  0.79801441     0.02800
C738        C  0.57389467  0.27813644  0.81175174    -0.20100
C739        C  0.55746645  0.28488546  0.80178496    -0.20300
C740        C  0.55847686  0.27783042  0.78241815     0.02700
H741        H  0.57760256  0.28136712  0.82721475     0.16500
H742        H  0.54662604  0.29494172  0.80775715     0.16500
N743        N  0.91132478  0.28499800  0.72519064     0.00200
C744        C  0.89932034  0.28711554  0.70884958     0.02800
C745        C  0.91047057  0.28558445  0.69163322    -0.20100
C746        C  0.92975323  0.28277120  0.69748980    -0.20300
C747        C  0.92992789  0.28252979  0.71809200     0.02700
H748        H  0.90517575  0.28557610  0.67633903     0.16500
H749        H  0.94208923  0.28009343  0.68771585     0.16500
N750        N  0.90823716  0.27990928  0.78031749     0.00200
C751        C  0.89742645  0.27396512  0.79650311     0.02800
C752        C  0.90977043  0.27292672  0.81314807    -0.20100
C753        C  0.92864095  0.27820004  0.80708847    -0.20300
C754        C  0.92735836  0.28240269  0.78699295     0.02700
H755        H  0.90549146  0.26983686  0.82837191     0.16500
H756        H  0.94169569  0.27996601  0.81657933     0.16500
N757        N  0.99588463  0.27410166  0.74668118     0.00200
C758        C  0.01144587  0.26174360  0.74476501     0.02800
C759        C  0.00845891  0.24922446  0.72829681    -0.20100
C760        C  0.99061176  0.25426488  0.71975896    -0.20300
C761        C  0.98313446  0.26954153  0.73134962     0.02700
H762        H  0.01821129  0.23771204  0.72301615     0.16500
H763        H  0.98414428  0.24798085  0.70611818     0.16500
N764        N  0.99541812  0.29147173  0.75901713     0.00200
C765        C  0.00877676  0.30731951  0.75889921     0.02800
C766        C  0.00170699  0.32322173  0.76991454    -0.20100
C767        C  0.98342288  0.31690780  0.77705206    -0.20300
C768        C  0.97981363  0.29736952  0.77000156     0.02700
H769        H  0.00876661  0.33808003  0.77194562     0.16500
H770        H  0.97382959  0.32562596  0.78639663     0.16500
N771        N  0.08306615  0.25626081  0.76321078     0.00200
C772        C  0.09323322  0.24217010  0.77367726     0.02800
C773        C  0.07995780  0.22828389  0.78218749    -0.20100
C774        C  0.06122187  0.23377269  0.77677670    -0.20300
C775        C  0.06344487  0.25074247  0.76501689     0.02700
H776        H  0.08336507  0.21469008  0.79026392     0.16500
H777        H  0.04754030  0.22529084  0.77972603     0.16500
N778        N  0.08083213  0.30839058  0.74316808     0.00200
C779        C  0.09339127  0.32420333  0.73826503     0.02800
C780        C  0.08266117  0.34154466  0.73549995    -0.20100
C781        C  0.06312612  0.33639481  0.73891799    -0.20300
C782        C  0.06238138  0.31607342  0.74363516     0.02700
H783        H  0.08836944  0.35651214  0.73162971     0.16500
H784        H  0.05094029  0.34664852  0.73899392     0.16500
O785        O  0.70591400  0.27250256  0.82213586    -0.70700
O786        O  0.64980955  0.27849682  0.82417156    -0.70800
O787        O  0.67968956  0.27194574  0.85173871    -0.70800
O788        O  0.67711092  0.27868707  0.79496022    -0.70900
O789        O  0.67403178  0.24513292  0.79094756    -0.70800
O790        O  0.67270378  0.23888946  0.84762630    -0.70800
O791        O  0.64469266  0.24550746  0.81787895    -0.70800
O792        O  0.70137309  0.23894357  0.81972273    -0.70800
Ni793      Ni  0.67815714  0.27660320  0.82346424     1.25400
Ni794      Ni  0.67291418  0.24089048  0.81902253     1.25400
C795        C  0.71290996  0.25479513  0.82071885     0.91400
C796        C  0.63803385  0.26336264  0.82000607     0.91400
C797        C  0.67755171  0.25406474  0.85889147     0.91400
C798        C  0.67591833  0.26295166  0.78367533     0.91600
O799        O  0.80812192  0.27188285  0.71701486    -0.70700
O800        O  0.80639371  0.27344350  0.65995898    -0.70800
O801        O  0.83628863  0.27463130  0.68902137    -0.70800
O802        O  0.77941895  0.27120590  0.68887824    -0.70900
O803        O  0.77839683  0.30492529  0.69007092    -0.70800
O804        O  0.83536445  0.30837088  0.68972354    -0.70800
O805        O  0.80572471  0.30718873  0.66087192    -0.70800
O806        O  0.80742114  0.30561969  0.71836500    -0.70800
Ni807      Ni  0.80770942  0.27162083  0.68857096     1.25400
Ni808      Ni  0.80679273  0.30775950  0.68972537     1.25400
C809        C  0.80770151  0.28838811  0.72707619     0.91400
C810        C  0.80461342  0.29041361  0.65106501     0.91400
C811        C  0.84515978  0.29210573  0.69038075     0.91400
C812        C  0.76958272  0.28745311  0.68966811     0.91600
O813        O  0.67846411  0.27090612  0.72082510    -0.70700
O814        O  0.67553010  0.27881360  0.66455833    -0.70800
O815        O  0.64863385  0.26911091  0.69425844    -0.70800
O816        O  0.70517722  0.27996184  0.69201002    -0.70900
O817        O  0.70965490  0.24677415  0.68863830    -0.70800
O818        O  0.65372992  0.23669203  0.68700076    -0.70800
O819        O  0.68248568  0.24642482  0.65934325    -0.70800
O820        O  0.68162738  0.23770391  0.71604455    -0.70800
Ni821      Ni  0.67673814  0.27591659  0.69299222     1.25400
Ni822      Ni  0.68195964  0.24071810  0.68751861     1.25400
C823        C  0.67997173  0.25300490  0.72770894     0.91400
C824        C  0.67979520  0.26431879  0.65274286     0.91400
C825        C  0.64206380  0.25077871  0.69174688     0.91400
C826        C  0.71662823  0.26493124  0.69021446     0.91600
O827        O  0.77676432  0.25063991  0.81822236    -0.70700
O828        O  0.83355995  0.24846249  0.81690791    -0.70800
O829        O  0.80528135  0.24805946  0.84646194    -0.70800
O830        O  0.80453333  0.25132967  0.78912360    -0.70900
O831        O  0.80663469  0.28507877  0.79120257    -0.70800
O832        O  0.80805614  0.28178903  0.84830818    -0.70800
O833        O  0.83607871  0.28223081  0.81804142    -0.70800
O834        O  0.77928614  0.28436991  0.82051636    -0.70800
Ni835      Ni  0.80501369  0.24840716  0.81765659     1.25400
Ni836      Ni  0.80768189  0.28455346  0.81969020     1.25400
C837        C  0.76873294  0.26787043  0.81970402     0.91400
C838        C  0.84406878  0.26498324  0.81610561     0.91400
C839        C  0.80580570  0.26450814  0.85676907     0.91400
C840        C  0.80552095  0.26875765  0.78078885     0.91600
C841        C  0.74774878  0.28599184  0.69021600    -0.12700
C842        C  0.73826494  0.26782398  0.68979440    -0.27900
H843        H  0.73946945  0.29979652  0.69100194     0.16300
H844        H  0.74673773  0.25414294  0.68887126     0.16900
C845        C  0.80738773  0.28757100  0.74905013    -0.12700
C846        C  0.80562103  0.26985564  0.75883794    -0.27900
H847        H  0.80841439  0.30179637  0.75729990     0.16300
H848        H  0.80443078  0.25566112  0.75054123     0.16900
C849        C  0.67691203  0.26559651  0.76199606    -0.12700
C850        C  0.67935772  0.24995986  0.74940426    -0.27900
H851        H  0.67599076  0.28091759  0.75631495     0.16300
H852        H  0.68062342  0.23467046  0.75507473     0.16900
C853        C  0.73460425  0.25270363  0.82008496    -0.12700
C854        C  0.74701926  0.26911400  0.82056035    -0.27900
H855        H  0.74041054  0.23759527  0.81902182     0.16300
H856        H  0.74109509  0.28417695  0.82161640     0.16900
C857        C  0.09006286  0.27691594  0.75927226    -0.12700
C858        C  0.08426237  0.28687077  0.74284520    -0.27900
H859        H  0.09691326  0.28557636  0.77150578     0.16300
H860        H  0.07733792  0.27809663  0.73077686     0.16900
C861        C  0.02618578  0.30974373  0.74580474    -0.12700
C862        C  0.04458847  0.30593668  0.75241163    -0.27900
H863        H  0.02435393  0.31869367  0.73240622     0.16300
H864        H  0.04659445  0.29768383  0.76620223     0.16900
C865        C  0.02851681  0.26034455  0.75881909    -0.12700
C866        C  0.04703787  0.25766099  0.75206279    -0.27900
H867        H  0.02572353  0.26059294  0.77475013     0.16300
H868        H  0.04969761  0.25851865  0.73614645     0.16900
C869        C  0.87527642  0.27256805  0.79755010    -0.12700
C870        C  0.86575555  0.26398312  0.81325667    -0.27900
H871        H  0.86671779  0.27966295  0.78585394     0.16300
H872        H  0.87396690  0.25548124  0.82419592     0.16900
C873        C  0.94401439  0.29230059  0.77606340    -0.12700
C874        C  0.96225022  0.28457634  0.77555806    -0.27900
H875        H  0.94182616  0.30736601  0.77022506     0.16300
H876        H  0.96447821  0.26914983  0.78040100     0.16900
C877        C  0.87719757  0.28819146  0.70872229    -0.12700
C878        C  0.86704382  0.29362826  0.69212415    -0.27900
H879        H  0.86913229  0.28349540  0.72195839     0.16300
H880        H  0.87491883  0.29965561  0.67931258     0.16900
C881        C  0.94738189  0.27655127  0.73017234    -0.12700
C882        C  0.96611077  0.28146516  0.72471140    -0.27900
H883        H  0.94478859  0.26597391  0.74227777     0.16300
H884        H  0.96858125  0.29157470  0.71218872     0.16900
C885        C  0.90754397  0.29082138  0.74559285    -0.12700
C886        C  0.90250134  0.27705522  0.75952994    -0.27900
H887        H  0.91322884  0.30561460  0.75051131     0.16300
H888        H  0.89684800  0.26218120  0.75475613     0.16900
C889        C  0.60523964  0.25988023  0.80207139    -0.12700
C890        C  0.61661969  0.26725164  0.81746816    -0.27900
H891        H  0.61159321  0.24958784  0.79137610     0.16300
H892        H  0.61099045  0.27906334  0.82695755     0.16900
C893        C  0.60989071  0.25134220  0.70991916    -0.12700
C894        C  0.62088942  0.24506954  0.69441432    -0.27900
H895        H  0.61627733  0.26233830  0.72049697     0.16300
H896        H  0.61504111  0.23336956  0.68436983     0.16900
C897        C  0.58043619  0.26334153  0.74386653    -0.12700
C898        C  0.58013002  0.25565603  0.76250314    -0.27900
H899        H  0.58037980  0.27958952  0.74167549     0.16300
H900        H  0.58067345  0.23934390  0.76428086     0.16900
C901        C  0.52709763  0.28237648  0.76172299    -0.12700
C902        C  0.54651375  0.28615554  0.76596906    -0.27900
H903        H  0.52132642  0.29010133  0.74873862     0.16300
H904        H  0.55440362  0.29667870  0.75623585     0.16900
C905        C  0.52182908  0.24047753  0.72868503    -0.12700
C906        C  0.53932489  0.25086328  0.72817627    -0.27900
H907        H  0.52138584  0.22415903  0.72650397     0.16300
H908        H  0.53955144  0.26725424  0.72859326     0.16900
C909        C  0.45519733  0.23627256  0.75572538    -0.12700
C910        C  0.46251300  0.24508629  0.77253965    -0.27900
H911        H  0.46532919  0.23321585  0.74371141     0.16300
H912        H  0.45299394  0.24545433  0.78550620     0.16900
C913        C  0.44454861  0.28189780  0.73755767    -0.12700
C914        C  0.46399026  0.28339312  0.74180745    -0.27900
H915        H  0.43888638  0.27019203  0.72731073     0.16300
H916        H  0.46957649  0.29368552  0.75344012     0.16900
C917        C  0.41424956  0.25539861  0.76268016    -0.12700
C918        C  0.40394006  0.26861165  0.75156221    -0.27900
H919        H  0.42502892  0.26207782  0.77314818     0.16300
H920        H  0.39340874  0.26303550  0.74027940     0.16900
C921        C  0.75561342  0.23547032  0.10393637    -0.12700
C922        C  0.75911805  0.25585774  0.10433070    -0.27900
H923        H  0.76573727  0.22635167  0.11246174     0.16300
H924        H  0.77208251  0.26167634  0.11257747     0.16900
C925        C  0.76411637  0.26790382  0.06170531    -0.12700
C926        C  0.76569151  0.26800263  0.04164602    -0.27900
H927        H  0.77607875  0.26054531  0.06948356     0.16300
H928        H  0.77854152  0.26063218  0.03565572     0.16900
C929        C  0.74339091  0.22744917  0.05900987    -0.12700
C930        C  0.73584337  0.23382045  0.04154582    -0.27900
H931        H  0.75840071  0.22198494  0.05965134     0.16300
H932        H  0.72117415  0.24014961  0.04121426     0.16900
C933        C  0.78682350  0.26757273  0.88823898    -0.12700
C934        C  0.80397858  0.26362166  0.87876093    -0.27900
H935        H  0.77361201  0.27038810  0.87939661     0.16300
H936        H  0.81722924  0.26011581  0.88717636     0.16900
C937        C  0.76077486  0.28041363  0.95717225    -0.12700
C938        C  0.76349601  0.27259790  0.97548538    -0.27900
H939        H  0.74854832  0.29035991  0.95449170     0.16300
H940        H  0.77483429  0.26147759  0.97758110     0.16900
C941        C  0.69870051  0.25510902  0.88945894    -0.12700
C942        C  0.68104592  0.25055051  0.88034066    -0.27900
H943        H  0.71080136  0.26189034  0.88091784     0.16300
H944        H  0.66960172  0.24190400  0.88816327     0.16900
C945        C  0.73194165  0.23624366  0.95386318    -0.12700
C946        C  0.73020599  0.24189182  0.97307398    -0.27900
H947        H  0.74413613  0.22698541  0.94933284     0.16300
H948        H  0.71883779  0.25241584  0.97707581     0.16900
C949        C  0.73996430  0.25157534  0.91195177    -0.12700
C950        C  0.74826087  0.27021553  0.91458357    -0.27900
H951        H  0.74981780  0.23897681  0.91059145     0.16300
H952        H  0.73843530  0.28230616  0.91843894     0.16900
C953        C  0.36883509  0.20515953  0.74603486    -0.12700
C954        C  0.38098049  0.21937424  0.75520286    -0.27900
H955        H  0.37485242  0.19542441  0.73466841     0.16300
H956        H  0.37479302  0.23051428  0.76513509     0.16900
C957        C  0.12648002  0.34125555  0.74097447    -0.12700
C958        C  0.11544975  0.32410743  0.73699522    -0.27900
H959        H  0.11938771  0.35460014  0.74663977     0.16300
H960        H  0.12264071  0.31009123  0.73342936     0.16900
C961        C  0.24166032  0.21003700  0.77511483    -0.12700
C962        C  0.25026529  0.20554122  0.75772153    -0.27900
H963        H  0.25063961  0.21204012  0.78859957     0.16300
H964        H  0.24131574  0.20381299  0.74419021     0.16900
C965        C  0.18609255  0.27525168  0.77010459    -0.12700
C966        C  0.18251862  0.28271839  0.75190757    -0.27900
H967        H  0.18917230  0.28538479  0.78268928     0.16300
H968        H  0.17966853  0.27254499  0.73930373     0.16900
C969        C  0.12426266  0.22557308  0.78459875    -0.12700
C970        C  0.11511707  0.23897915  0.77261335    -0.27900
H971        H  0.11633890  0.21892370  0.79709122     0.16300
H972        H  0.12360048  0.24693518  0.76120810     0.16900
C973        C  0.25497916  0.33727629  0.75941985    -0.12700
C974        C  0.24506557  0.33763972  0.74193627    -0.27900
H975        H  0.24710263  0.33837671  0.77343556     0.16300
H976        H  0.25285832  0.33630773  0.72789605     0.16900
C977        C  0.31113326  0.27391113  0.76533073    -0.12700
C978        C  0.31185869  0.26215963  0.74901737    -0.27900
H979        H  0.31023517  0.26718212  0.78007163     0.16300
H980        H  0.31253656  0.26886158  0.73425423     0.16900
C981        C  0.37270893  0.32653034  0.76515953    -0.12700
C982        C  0.38000615  0.30951130  0.75708002    -0.27900
H983        H  0.38246704  0.33742044  0.77296662     0.16300
H984        H  0.36992712  0.29790931  0.75076736     0.16900
C985        C  0.21021787  0.41296651  0.73739467    -0.12700
C986        C  0.19636425  0.40099581  0.72772197    -0.27900
H987        H  0.21890769  0.40684677  0.74954212     0.16300
H988        H  0.18904758  0.40656971  0.71445725     0.16900
C989        C  0.29753540  0.40384899  0.75100846    -0.12700
C990        C  0.31277589  0.39481717  0.76030578    -0.27900
H991        H  0.28574038  0.39467295  0.74390082     0.16300
H992        H  0.32364281  0.40372677  0.76897043     0.16900
C993        C  0.26096164  0.43170667  0.73944656    -0.12700
C994        C  0.24711599  0.44343333  0.74782712    -0.27900
H995        H  0.25679150  0.42126347  0.72742374    -0.00500
H996        H  0.25247692  0.45397677  0.75929316     0.16900
C997        C  0.28312422  0.49157442  0.73048042    -0.12700
C998        C  0.27974773  0.47168391  0.72766718    -0.27900
H999        H  0.29196997  0.49721895  0.74310662     0.16300
H1000       H  0.26940003  0.46639481  0.71604952     0.16900
C1001       C  0.24074753  0.49353480  0.75283642    -0.12700
C1002       C  0.23428410  0.48643881  0.73497718    -0.27900
H1003       H  0.23800321  0.48419496  0.76586377     0.16300
H1004       H  0.23441864  0.49657035  0.72232608     0.16900
C1005       C  0.28813873  0.57551707  0.75155967    -0.12700
C1006       C  0.28364474  0.55639223  0.74547522    -0.27900
H1007       H  0.29881530  0.58423492  0.74278494     0.16300
H1008       H  0.29069079  0.55150545  0.73184832     0.16900
C1009       C  0.24404581  0.56597032  0.71743492    -0.12700
C1010       C  0.24663358  0.55098467  0.70403338    -0.27900
H1011       H  0.24810161  0.56448830  0.73286206     0.16300
H1012       H  0.24262524  0.55394274  0.68861109     0.16900
C1013       C  0.26025721  0.60696409  0.73281606    -0.12700
C1014       C  0.25428025  0.60618199  0.75195148    -0.27900
H1015       H  0.27594871  0.60739914  0.72937857     0.16300
H1016       H  0.23852578  0.60680825  0.75505064     0.16900
C1017       C  0.24914655  0.64977589  0.68466169    -0.12700
C1018       C  0.24761094  0.63976179  0.70214084    -0.27900
H1019       H  0.24799804  0.64154762  0.67058916     0.16300
H1020       H  0.24922059  0.64798661  0.71619449     0.16900
C1021       C  0.23973220  0.69953879  0.75700987    -0.12700
C1022       C  0.25387927  0.70547702  0.74419719    -0.27900
H1023       H  0.22469173  0.69605083  0.75170683     0.16300
H1024       H  0.26893564  0.70881617  0.74953169     0.16900
C1025       C  0.23868088  0.75760765  0.81721126    -0.12700
C1026       C  0.25335792  0.77176661  0.81510086    -0.27900
H1027       H  0.22342657  0.76200920  0.81912386     0.16300
H1028       H  0.26863774  0.76729033  0.81357211     0.16900
C1029       C  0.25802493  0.62936702  0.79280987    -0.12700
C1030       C  0.26327472  0.63970464  0.80971394    -0.27900
H1031       H  0.24815009  0.63627250  0.78211156     0.16300
H1032       H  0.27444192  0.63390339  0.81969420     0.16900
C1033       C  0.25259016  0.78328442  0.68381884    -0.12700
C1034       C  0.23772246  0.77022353  0.68841845    -0.27900
H1035       H  0.26708214  0.77764560  0.68015996     0.16300
H1036       H  0.22319843  0.77575196  0.69210127     0.16900
C1037       C  0.25669314  0.83966652  0.74453539    -0.12700
C1038       C  0.24128477  0.83369010  0.75594441    -0.27900
H1039       H  0.27129018  0.84285202  0.75110174     0.16300
H1040       H  0.22676765  0.83042500  0.74921159     0.16900
C1041       C  0.29933239  0.14142460  0.75561461    -0.12700
C1042       C  0.28012276  0.13455361  0.75449340    -0.27900
H1043       H  0.31134575  0.13093049  0.75513642     0.16300
H1044       H  0.26837357  0.14537233  0.75538671     0.16900
C1045       C  0.19391998  0.14295446  0.77829965    -0.12700
C1046       C  0.18350154  0.15558406  0.78994211    -0.27900
H1047       H  0.20091621  0.14873856  0.76486112     0.16300
H1048       H  0.17760881  0.15033693  0.80404261     0.16900
C1049       C  0.21998371  0.10997064  0.75680462    -0.12700
C1050       C  0.23933936  0.11192446  0.76227104    -0.27900
H1051       H  0.21611980  0.10565444  0.74161106     0.16300
H1052       H  0.24286364  0.11642854  0.77755798     0.16900
C1053       C  0.20085678  0.05107332  0.77686301    -0.12700
C1054       C  0.20125279  0.06919596  0.76784291    -0.27900
H1055       H  0.20039382  0.05020645  0.79302823     0.16300
H1056       H  0.20099068  0.06988997  0.75168519     0.16900
C1057       C  0.23421525  0.05380602  0.73802249    -0.12700
C1058       C  0.23913904  0.07344103  0.73422521    -0.27900
H1059       H  0.22096724  0.04781348  0.73035250     0.16300
H1060       H  0.22976583  0.08097022  0.72351970     0.16900
C1061       C  0.24162892  0.90283538  0.79722181    -0.12700
C1062       C  0.23421652  0.89115063  0.81217299    -0.27900
H1063       H  0.25015436  0.89600148  0.78544234     0.16300
H1064       H  0.22421836  0.89756115  0.82291386     0.16900
C1065       C  0.24736838  0.97595894  0.77808282    -0.12700
C1066       C  0.23929252  0.99388034  0.78200461    -0.27900
H1067       H  0.25816044  0.97491755  0.76621942     0.16300
H1068       H  0.22713901  0.99468800  0.79246422     0.16900
C1069       C  0.24033914  0.91345803  0.70888662    -0.12700
C1070       C  0.24822187  0.90431857  0.69274122    -0.27900
H1071       H  0.23255079  0.90433490  0.71994596     0.16300
H1072       H  0.25738489  0.91311385  0.68255086     0.16900
C1073       C  0.22939674  0.98434130  0.73386434    -0.12700
C1074       C  0.21145939  0.98449738  0.74239982    -0.27900
H1075       H  0.23801842  0.99841865  0.73250510     0.16300
H1076       H  0.20182606  0.97103157  0.74108381     0.16900
C1077       C  0.23037768  0.93944625  0.74752906    -0.12700
C1078       C  0.24447435  0.93346745  0.76050506    -0.27900
H1079       H  0.21649399  0.94400428  0.75389431     0.16300
H1080       H  0.25904788  0.92992868  0.75498626     0.16900
C1081       C  0.23436846  0.76764732  0.09342655    -0.12700
C1082       C  0.24629855  0.75184667  0.09541457    -0.27900
H1083       H  0.24117338  0.78257986  0.09115274     0.16300
H1084       H  0.23953899  0.73683013  0.09739310     0.16900
C1085       C  0.26443730  0.76850687  0.05587037    -0.12700
C1086       C  0.26538733  0.76399923  0.03635417    -0.27900
H1087       H  0.25821335  0.78269173  0.06054404     0.16300
H1088       H  0.27032596  0.74928959  0.03152070     0.16900
C1089       C  0.21593686  0.76473167  0.03311191    -0.12700
C1090       C  0.21858267  0.75706915  0.05143447    -0.27900
H1091       H  0.20711528  0.77802756  0.03106138     0.16300
H1092       H  0.22776508  0.74402089  0.05343907     0.16900
C1093       C  0.24012845  0.81046113  0.88513231    -0.12700
C1094       C  0.24744559  0.82686704  0.87518640    -0.27900
H1095       H  0.23376350  0.79746597  0.87701769     0.16300
H1096       H  0.25559280  0.83883965  0.88329551     0.16900
C1097       C  0.24601379  0.79083896  0.95701659    -0.12700
C1098       C  0.23906320  0.79625740  0.97494303    -0.27900
H1099       H  0.25815979  0.78054843  0.95612270     0.16300
H1100       H  0.22785293  0.80765277  0.97574412     0.16900
C1101       C  0.26232086  0.72246242  0.88346219    -0.12700
C1102       C  0.25904039  0.70390156  0.87505262    -0.27900
H1103       H  0.26300764  0.73585937  0.87413574     0.16300
H1104       H  0.25612835  0.69078746  0.88440048     0.16900
C1105       C  0.24245695  0.74210790  0.95144932    -0.12700
C1106       C  0.24889765  0.74368426  0.97043728    -0.27900
H1107       H  0.22689948  0.74433457  0.94807455     0.16300
H1108       H  0.26451859  0.74221839  0.97410276     0.16900
C1109       C  0.25399026  0.76133304  0.91006448    -0.12700
C1110       C  0.23871677  0.77278197  0.91536808    -0.27900
H1111       H  0.26734835  0.76878274  0.90431751     0.16300
H1112       H  0.22556846  0.76512367  0.92124439     0.16900
C1113       C  0.24514513  0.82464422  0.61537567    -0.12700
C1114       C  0.23866513  0.84047775  0.62618096    -0.27900
H1115       H  0.25358560  0.81307515  0.62274235     0.16300
H1116       H  0.22891253  0.85126175  0.61941808     0.16900
C1117       C  0.24245962  0.73371334  0.61714371    -0.12700
C1118       C  0.23544060  0.71695391  0.62656553    -0.27900
H1119       H  0.24974376  0.74601024  0.62558097     0.16300
H1120       H  0.22649151  0.70557633  0.61845246     0.16900
C1121       C  0.23756867  0.77344051  0.59181381    -0.12700
C1122       C  0.25203450  0.78692514  0.58656045    -0.27900
H1123       H  0.22344112  0.77893711  0.59679646     0.16300
H1124       H  0.26529628  0.78087735  0.58002731     0.16900
C1125       C  0.24366996  0.80221944  0.52727073    -0.12700
C1126       C  0.25376459  0.80353638  0.54463153    -0.27900
H1127       H  0.22822599  0.80641527  0.52667166     0.16300
H1128       H  0.26886363  0.79834555  0.54550853     0.16900
C1129       C  0.23608487  0.75853104  0.53073597    -0.12700
C1130       C  0.22811870  0.75946181  0.54895544    -0.27900
H1131       H  0.25053479  0.75195413  0.52898215     0.16300
H1132       H  0.21396966  0.76651935  0.55107028     0.16900
C1133       C  0.22080625  0.79131952  0.45452136    -0.12700
C1134       C  0.24059180  0.79395757  0.45603678    -0.27900
H1135       H  0.21233404  0.79250834  0.46818593     0.16300
H1136       H  0.24979819  0.79533585  0.44303285     0.16900
C1137       C  0.25679459  0.75247268  0.46036795    -0.12700
C1138       C  0.23700819  0.75009696  0.46184226    -0.27900
H1139       H  0.26518641  0.75685946  0.47374301     0.16300
H1140       H  0.22817557  0.74353449  0.44975949     0.16900
C1141       C  0.24238676  0.75335444  0.41548191    -0.12700
C1142       C  0.23537167  0.77214105  0.41385745    -0.27900
H1143       H  0.23178720  0.74068261  0.41676414     0.16300
H1144       H  0.24602799  0.78476004  0.41288994     0.16900
C1145       C  0.28416466  0.74349496  0.12221291    -0.12700
C1146       C  0.29914292  0.73399807  0.13143845    -0.27900
H1147       H  0.27401719  0.75222896  0.13103484     0.16300
H1148       H  0.30852019  0.72393858  0.12320442     0.16900
C1149       C  0.17987724  0.75445740  0.38054147    -0.12700
C1150       C  0.19665816  0.76384767  0.38777234    -0.27900
H1151       H  0.16848486  0.74875457  0.39059648     0.16300
H1152       H  0.20858450  0.76813910  0.37768946     0.16900
C1153       C  0.17540191  0.76339937  0.25045070    -0.12700
C1154       C  0.17179992  0.74673608  0.26144585    -0.27900
H1155       H  0.17802558  0.77804051  0.25768566     0.16300
H1156       H  0.16917214  0.73205210  0.25430647     0.16900
C1157       C  0.23486480  0.75521803  0.19084652    -0.12700
C1158       C  0.24443980  0.73774187  0.18981362    -0.27900
H1159       H  0.24341065  0.76948017  0.19164200     0.16300
H1160       H  0.23626432  0.72327072  0.18924547     0.16900
C1161       C  0.17974086  0.76187765  0.13094674    -0.12700
C1162       C  0.19640610  0.76830295  0.12140868    -0.27900
H1163       H  0.16756573  0.75458561  0.12257075     0.16300
H1164       H  0.20940615  0.77359861  0.12991010     0.16900
C1165       C  0.30091294  0.73179624  0.26235073    -0.12700
C1166       C  0.30293233  0.74744291  0.24982237    -0.27900
H1167       H  0.29900115  0.71637413  0.25670542     0.16300
H1168       H  0.30441884  0.76287055  0.25554432     0.16900
C1169       C  0.24505108  0.75601635  0.31951588    -0.12700
C1170       C  0.23086835  0.74138757  0.32099008    -0.27900
H1171       H  0.24123320  0.77179418  0.31804772     0.16300
H1172       H  0.23488444  0.72565604  0.32244680     0.16900
C1173       C  0.29779811  0.75245744  0.37984199    -0.12700
C1174       C  0.28070162  0.74751370  0.38938406    -0.27900
H1175       H  0.30976838  0.76068913  0.38768057     0.16300
H1176       H  0.26804887  0.74102295  0.38109674     0.16900
C1177       C  0.37340259  0.73982438  0.21361896    -0.12700
C1178       C  0.36369923  0.74585807  0.19693748    -0.27900
H1179       H  0.36509586  0.73304788  0.22582451     0.16300
H1180       H  0.37172701  0.75452353  0.18571846     0.16900
C1181       C  0.36899518  0.72789378  0.30066514    -0.12700
C1182       C  0.35869776  0.72438679  0.31764979    -0.27900
H1183       H  0.36219644  0.73609588  0.28852433     0.16300
H1184       H  0.36456244  0.71453928  0.32901139     0.16900
C1185       C  0.39330488  0.72401946  0.26042225    -0.12700
C1186       C  0.39999199  0.74181570  0.25303249    -0.27900
H1187       H  0.38965751  0.71177977  0.24996253     0.16300
H1188       H  0.40495897  0.75333282  0.26370304     0.16900
C1189       C  0.44745979  0.75566140  0.25689397    -0.12700
C1190       C  0.44462769  0.74629568  0.23914617    -0.27900
H1191       H  0.43557065  0.76415863  0.26318402     0.16300
H1192       H  0.45753377  0.74034750  0.23184335     0.16900
C1193       C  0.45239203  0.71476441  0.27439289    -0.12700
C1194       C  0.43352626  0.70873004  0.27034718    -0.27900
H1195       H  0.45592954  0.72240266  0.28846519     0.16300
H1196       H  0.42956486  0.70289594  0.25558633     0.16900
C1197       C  0.53631118  0.76383609  0.26785724    -0.12700
C1198       C  0.51875288  0.76113202  0.25840644    -0.27900
H1199       H  0.53744123  0.76115699  0.28379919     0.16300
H1200       H  0.51784739  0.76320138  0.24234968     0.16900
C1201       C  0.53637899  0.71581717  0.24738449    -0.12700
C1202       C  0.52029530  0.71728663  0.25897716    -0.27900
H1203       H  0.53492780  0.71778665  0.23136236     0.16300
H1204       H  0.52193637  0.71527399  0.27498983     0.16900
C1205       C  0.57943646  0.73352060  0.25013080    -0.12700
C1206       C  0.57789468  0.74779884  0.26447343    -0.27900
H1207       H  0.58049715  0.73826357  0.23467523     0.16300
H1208       H  0.57481870  0.74274747  0.27956101     0.16900
C1209       C  0.61653219  0.67915622  0.25200115    -0.12700
C1210       C  0.60707946  0.69618030  0.25724017    -0.27900
H1211       H  0.60813795  0.66638951  0.24546377     0.16300
H1212       H  0.61560199  0.70964664  0.26202169     0.16900
C1213       C  0.67628654  0.74860372  0.25915302    -0.12700
C1214       C  0.67746551  0.73488168  0.24440253    -0.27900
H1215       H  0.67528165  0.74353384  0.27453087     0.16300
H1216       H  0.67845149  0.73963667  0.22894009     0.16900
C1217       C  0.73563472  0.81195669  0.25649045    -0.12700
C1218       C  0.74650671  0.81210162  0.23973632    -0.27900
H1219       H  0.74284239  0.81276632  0.27107260     0.16300
H1220       H  0.73922715  0.81140584  0.22518408     0.16900
C1221       C  0.61657035  0.80286536  0.24873473    -0.12700
C1222       C  0.60626452  0.78617484  0.25511695    -0.27900
H1223       H  0.60920920  0.81431014  0.24015347     0.16300
H1224       H  0.61412165  0.77420292  0.26252658     0.16900
C1225       C  0.74802407  0.67576041  0.24908016    -0.12700
C1226       C  0.73513918  0.67685015  0.26420652    -0.27900
H1227       H  0.74269809  0.67410746  0.23377547     0.16300
H1228       H  0.74065138  0.67888628  0.27941764     0.16900
C1229       C  0.80241266  0.74263544  0.26118886    -0.12700
C1230       C  0.80439733  0.75304377  0.24415800    -0.27900
H1231       H  0.80067931  0.75046382  0.27534058     0.16300
H1232       H  0.80585411  0.74505775  0.23003717     0.16900
C1233       C  0.10593716  0.75164470  0.29822791    -0.12700
C1234       C  0.11395081  0.75642055  0.31628260    -0.27900
H1235       H  0.11555366  0.74951174  0.28551799     0.16300
H1236       H  0.10457003  0.75928033  0.32899962     0.16900
C1237       C  0.10649500  0.76507159  0.20911555    -0.12700
C1238       C  0.11799038  0.77376647  0.19486660    -0.27900
H1239       H  0.11273954  0.75382907  0.21889375     0.16300
H1240       H  0.11240508  0.78599939  0.18595246     0.16900
C1241       C  0.08100599  0.75982141  0.25980205    -0.12700
C1242       C  0.07667067  0.74992646  0.24254981    -0.27900
H1243       H  0.08633995  0.77552225  0.25945154     0.16300
H1244       H  0.07033841  0.73461303  0.24354789     0.16900
C1245       C  0.01901753  0.75106121  0.27268080    -0.12700
C1246       C  0.03787868  0.75840889  0.27277318    -0.27900
H1247       H  0.01566273  0.73546412  0.27685130     0.16300
H1248       H  0.04093142  0.77385517  0.26786880     0.16900
C1249       C  0.01781248  0.76330147  0.22649558    -0.12700
C1250       C  0.03559871  0.75482009  0.22547833    -0.27900
H1251       H  0.01652143  0.77956362  0.22496917     0.16300
H1252       H  0.03661525  0.73868937  0.22824851     0.16900
C1253       C  0.87567804  0.79445006  0.23701872    -0.12700
C1254       C  0.86557117  0.81103845  0.24228664    -0.27900
H1255       H  0.86778992  0.78029050  0.23327763     0.16300
H1256       H  0.87359474  0.82454605  0.24771884     0.16900
C1257       C  0.94832250  0.78150438  0.23799673    -0.12700
C1258       C  0.95405878  0.78258609  0.25715773    -0.27900
H1259       H  0.95859657  0.77756666  0.22635986     0.16300
H1260       H  0.94381399  0.78866342  0.26793494     0.16900
C1261       C  0.87452041  0.71108750  0.26482686    -0.12700
C1262       C  0.86405770  0.69547648  0.27327654    -0.27900
H1263       H  0.86772974  0.71984161  0.25307997     0.16300
H1264       H  0.87014377  0.68776236  0.28605165     0.16900
C1265       C  0.94498824  0.73733190  0.26325673    -0.12700
C1266       C  0.95036177  0.73388277  0.24438141    -0.27900
H1267       H  0.95580974  0.74300025  0.27416956     0.16300
H1268       H  0.93983263  0.72542355  0.23482935     0.16900
C1269       C  0.90104714  0.75115281  0.25646957    -0.12700
C1270       C  0.90827806  0.75928151  0.23952093    -0.27900
H1271       H  0.89317153  0.76072026  0.26672629     0.16300
H1272       H  0.91646115  0.74950284  0.22980192     0.16900
C1273       C  0.80654604  0.62164441  0.25628957    -0.12700
C1274       C  0.78892905  0.61143486  0.25845101    -0.27900
H1275       H  0.81879947  0.61444764  0.24909071     0.16300
H1276       H  0.77649661  0.61933478  0.26464095     0.16900
C1277       C  0.69421105  0.60589302  0.26639226    -0.12700
C1278       C  0.67936997  0.61707079  0.27359972    -0.27900
H1279       H  0.70371267  0.61222857  0.25484157     0.16300
H1280       H  0.67102769  0.61171758  0.28640306     0.16900
C1281       C  0.73236374  0.58186151  0.25902615    -0.12700
C1282       C  0.75146158  0.58360371  0.26493104    -0.27900
H1283       H  0.72871272  0.58150226  0.24320545     0.16300
H1284       H  0.75497257  0.58503665  0.28074443     0.16900
C1285       C  0.75860485  0.52608161  0.24311045    -0.12700
C1286       C  0.75458595  0.54540625  0.23889822    -0.27900
H1287       H  0.77270187  0.52268035  0.25012357     0.16300
H1288       H  0.73989680  0.54897968  0.23348731     0.16900
C1289       C  0.72716853  0.52384260  0.28307466    -0.12700
C1290       C  0.73127173  0.54385002  0.28504839    -0.27900
H1291       H  0.71232781  0.51855481  0.27859070     0.16300
H1292       H  0.74650872  0.54910615  0.28774604     0.16900
C1293       C  0.71419222  0.44500550  0.25144942    -0.12700
C1294       C  0.71566388  0.46515177  0.25494189    -0.27900
H1295       H  0.70645328  0.43616528  0.26275265     0.16300
H1296       H  0.70929338  0.47051406  0.26875150     0.16900
C1297       C  0.77221849  0.44752953  0.27027120    -0.12700
C1298       C  0.77165595  0.46779791  0.26818272    -0.27900
H1299       H  0.77998347  0.43952263  0.25869169     0.16300
H1300       H  0.77865690  0.47425674  0.25503254     0.16900
C1301       C  0.75211801  0.40676432  0.26314506    -0.12700
C1302       C  0.73328991  0.40513833  0.25643687    -0.27900
H1303       H  0.76356382  0.40882509  0.25198099     0.16300
H1304       H  0.72167461  0.40486397  0.26755661     0.16900
C1305       C  0.74455207  0.08639597  0.25473757    -0.12700
C1306       C  0.72769788  0.08813273  0.26517810    -0.27900
H1307       H  0.75784885  0.08314996  0.26326888     0.16300
H1308       H  0.71381782  0.08971649  0.25705607     0.16900
C1309       C  0.72949131  0.04378581  0.27947629    -0.12700
C1310       C  0.72252057  0.02533861  0.28498421    -0.27900
H1311       H  0.74167186  0.04519462  0.26931981     0.16300
H1312       H  0.71067229  0.02441061  0.29583612     0.16900
C1313       C  0.76313390  0.03033742  0.24095636    -0.12700
C1314       C  0.76503356  0.05048045  0.23785897    -0.27900
H1315       H  0.77408677  0.02372385  0.25072761     0.16300
H1316       H  0.77751323  0.05846094  0.24513164     0.16900
C1317       C  0.78636360  0.88253502  0.24346728    -0.12700
C1318       C  0.80192879  0.87356810  0.23500514    -0.27900
H1319       H  0.77578219  0.87342492  0.25202886     0.16300
H1320       H  0.81171958  0.88202561  0.22507102     0.16900
C1321       C  0.76182447  0.94910117  0.26256625    -0.12700
C1322       C  0.76325988  0.96918087  0.25973539    -0.27900
H1323       H  0.75211778  0.94313264  0.27413963     0.16300
H1324       H  0.77143239  0.97539968  0.24716586     0.16900
C1325       C  0.69622930  0.88032066  0.24658410    -0.12700
C1326       C  0.67926663  0.86979098  0.25117588    -0.27900
H1327       H  0.70911690  0.87220264  0.24184080     0.16300
H1328       H  0.66671197  0.87749938  0.25715288     0.16900
C1329       C  0.71986702  0.95256026  0.23759372    -0.12700
C1330       C  0.71607219  0.97146283  0.24389248    -0.27900
H1331       H  0.73167952  0.95041066  0.22697317     0.16300
H1332       H  0.70559668  0.97369670  0.25583309     0.16900
C1333       C  0.73380229  0.90913634  0.23859507    -0.12700
C1334       C  0.74768056  0.90652456  0.25295003    -0.27900
H1335       H  0.73901781  0.91311611  0.22382148     0.16300
H1336       H  0.74280631  0.90473357  0.26823013     0.16900
C1337       C  0.72551857  0.11528879  0.30451639    -0.12700
C1338       C  0.71851522  0.12469159  0.32089066    -0.27900
H1339       H  0.73268897  0.12408352  0.29278961     0.16300
H1340       H  0.70962433  0.11627743  0.33165638     0.16900
C1341       C  0.72757839  0.30514205  0.13398466    -0.12700
C1342       C  0.73789951  0.29035520  0.12512372    -0.27900
H1343       H  0.71585711  0.31249342  0.12585783     0.16300
H1344       H  0.74847488  0.28226679  0.13414005     0.16900
C1345       C  0.73382517  0.38383968  0.21457852    -0.12700
C1346       C  0.73757659  0.37634980  0.19621773    -0.27900
H1347       H  0.73141725  0.37332954  0.22680946     0.16300
H1348       H  0.74122242  0.38634613  0.18390151     0.16900
C1349       C  0.72114900  0.24322982  0.19616804    -0.12700
C1350       C  0.73770394  0.25509936  0.19539028    -0.27900
H1351       H  0.70666371  0.24992507  0.19688687     0.16300
H1352       H  0.75215099  0.24833852  0.19456868     0.16900
C1353       C  0.72936398  0.18318785  0.25432413    -0.12700
C1354       C  0.71392927  0.18334090  0.26675178    -0.27900
H1355       H  0.74448946  0.18367439  0.26015924     0.16300
H1356       H  0.69878045  0.18293828  0.26100444     0.16900
C1357       C  0.71727550  0.19099584  0.13609934    -0.12700
C1358       C  0.72870179  0.20573987  0.12744321    -0.27900
H1359       H  0.70433662  0.18455354  0.12833320     0.16300
H1360       H  0.74105698  0.21256613  0.13590997     0.16900
C1361       C  0.73311958  0.11334655  0.21656299    -0.12700
C1362       C  0.72555809  0.12184190  0.19980072    -0.27900
H1363       H  0.73772771  0.12298474  0.22908434     0.16300
H1364       H  0.71973669  0.11233225  0.18770345     0.16900
C1365       C  0.74235685  0.25628780  0.32169720    -0.12700
C1366       C  0.72546280  0.24543972  0.32442291    -0.27900
H1367       H  0.75628632  0.24882119  0.31943954     0.16300
H1368       H  0.71156179  0.25297605  0.32663250     0.16900
C1369       C  0.73235186  0.31925265  0.26565549    -0.12700
C1370       C  0.74693911  0.31972818  0.25210073    -0.27900
H1371       H  0.71692093  0.31860929  0.26074417     0.16300
H1372       H  0.76236074  0.32050082  0.25704669     0.16900
C1373       C  0.74335716  0.37726718  0.32219514    -0.12700
C1374       C  0.74852757  0.38503656  0.30430728    -0.27900
H1375       H  0.73909038  0.38699446  0.33441891     0.16300
H1376       H  0.75144793  0.37473347  0.29204802     0.16900
C1377       C  0.72599602  0.20568956  0.39571804    -0.12700
C1378       C  0.73307011  0.19032977  0.38467709    -0.27900
H1379       H  0.71839468  0.21801323  0.38862574     0.16300
H1380       H  0.74223373  0.17912171  0.39168331     0.16900
C1381       C  0.74546233  0.29312472  0.39420878    -0.12700
C1382       C  0.75418831  0.30842472  0.38358556    -0.27900
H1383       H  0.73444319  0.28303061  0.38704462     0.16300
H1384       H  0.76657244  0.31715262  0.39014618     0.16900
C1385       C  0.72761360  0.24200293  0.42867793    -0.12700
C1386       C  0.74194506  0.25181600  0.41828553    -0.27900
H1387       H  0.71997277  0.25095870  0.43967386     0.16300
H1388       H  0.75079105  0.24357793  0.40773271     0.16900
C1389       C  0.74013934  0.21393647  0.48325073    -0.12700
C1390       C  0.72838930  0.22193884  0.46928215    -0.27900
H1391       H  0.74867932  0.20089371  0.47915894     0.16300
H1392       H  0.71958043  0.23496787  0.47258997     0.16900
C1393       C  0.76266010  0.25458131  0.47646970    -0.12700
C1394       C  0.76525415  0.25786110  0.45666304    -0.27900
H1395       H  0.77038749  0.24185962  0.48263830     0.16300
H1396       H  0.77435355  0.24717115  0.44885999     0.16900
C1397       C  0.80167171  0.29053774  0.62912742    -0.12700
C1398       C  0.78621857  0.28054529  0.61982532    -0.27900
H1399       H  0.81292973  0.29847779  0.62038821     0.16300
H1400       H  0.77422882  0.27387092  0.62859321     0.16900
C1401       C  0.76664993  0.25908213  0.54996814    -0.12700
C1402       C  0.75328365  0.24370423  0.55143517    -0.27900
H1403       H  0.77226600  0.26321493  0.53535730     0.16300
H1404       H  0.74970475  0.23803759  0.56618974     0.16900
C1405       C  0.69692292  0.26287999  0.62003450    -0.12700
C1406       C  0.68150829  0.26866210  0.63125699    -0.27900
H1407       H  0.70899181  0.25481106  0.62685127     0.16300
H1408       H  0.67059384  0.27857078  0.62493891     0.16900
C1409       C  0.72093774  0.27826383  0.55091471    -0.12700
C1410       C  0.71848104  0.26657585  0.53453383    -0.27900
H1411       H  0.73236331  0.29026400  0.55125617     0.16300
H1412       H  0.70814181  0.25357488  0.53468861     0.16900
C1413       C  0.73482712  0.26568965  0.59298200    -0.12700
C1414       C  0.75028166  0.27831308  0.58852991    -0.27900
H1415       H  0.73761132  0.25074183  0.59881220     0.16300
H1416       H  0.74720069  0.29336106  0.58315172     0.16900
loop_ 
_geom_bond_atom_site_label_1 
_geom_bond_atom_site_label_2 
_geom_bond_distance 
_geom_bond_site_symmetry_2 
_ccdc_geom_bond_type 
N1            C5   1.362       .  A
N1            C2   1.363       .  A
N1         C1413   1.451       .  S
C2            C3   1.388       .  A
C2         C1405   1.490       .  S
C3            C4   1.372       .  A
C3            H6   1.082       .  S
C4            C5   1.379       .  A
C4            H7   1.082       .  S
C5         C1409   1.479       .  S
N8           C12   1.364       .  A
N8            C9   1.366       .  A
N8         C1414   1.446       .  S
C9           C10   1.386       .  A
C9         C1398   1.493       .  S
C10          C11   1.371       .  A
C10          H13   1.082       .  S
C11          C12   1.377       .  A
C11          H14   1.082       .  S
C12        C1401   1.485       .  S
N15          C19   1.365       .  A
N15          C16   1.355       .  A
N15          N22   1.421       .  S
C16          C17   1.377       .  A
C16        C1410   1.478       .  S
C17          C18   1.379       .  A
C17          H20   1.082       .  S
C18          C19   1.388       .  A
C18          H21   1.074       .  S
C19        C1393   1.490       .  S
N22          C26   1.368       .  A
N22          C23   1.364       .  A
C23          C24   1.380       .  A
C23        C1389   1.474       .  S
C24          C25   1.367       .  A
C24          H27   1.083       .  S
C25          C26   1.378       .  A
C25          H28   1.082       .  S
C26        C1402   1.484       .  S
N29          C33   1.365       .  A
N29          C30   1.365       .  A
N29        C1386   1.448       .  S
C30          C31   1.388       .  A
C30        C1381   1.501       .  S
C31          C32   1.377       .  A
C31          H34   1.082       .  S
C32          C33   1.381       .  A
C32          H35   1.082       .  S
C33        C1394   1.491       .  S
N36          C40   1.359       .  A
N36          C37   1.367       .  A
N36        C1385   1.447       .  S
C37          C38   1.387       .  A
C37        C1377   1.486       .  S
C38          C39   1.365       .  A
C38          H41   1.082       .  S
C39          C40   1.381       .  A
C39          H42   1.082       .  S
C40        C1390   1.488       .  S
O43         Ni51   1.923       .  S
O43          C53   1.282       .  A
O44         Ni51   1.933       .  S
O44          C54   1.283       .  A
O45         Ni51   1.927       .  S
O45          C55   1.282       .  A
O46         Ni51   1.903       .  S
O46          C56   1.281       .  A
O47         Ni52   1.908       .  S
O47          C56   1.278       .  A
O48         Ni52   1.913       .  S
O48          C55   1.280       .  A
O49         Ni52   1.930       .  S
O49          C54   1.284       .  A
O50         Ni52   1.917       .  S
O50          C53   1.282       .  A
Ni51        Ni52   2.389       .  S
C53        C1369   1.478       .  S
C54        C1382   1.487       .  S
C55        C1373   1.474       .  S
C56        C1365   1.463       .  S
O57         Ni65   1.909       .  S
O57          C67   1.281       .  A
O58         Ni65   1.923       .  S
O58          C68   1.282       .  A
O59         Ni65   1.926       .  S
O59          C69   1.281       .  A
O60         Ni65   1.917       .  S
O60          C70   1.280       .  A
O61         Ni66   1.910       .  S
O61          C70   1.281       .  A
O62         Ni66   1.931       .  S
O62          C69   1.284       .  A
O63         Ni66   1.925       .  S
O63          C68   1.282       .  A
O64         Ni66   1.901       .  S
O64          C67   1.277       .  A
Ni65        Ni66   2.391       .  S
C67        C1353   1.459       .  S
C68        C1357   1.482       .  S
C69        C1362   1.482       .  S
C70        C1349   1.471       .  S
O71         Ni79   1.918       .  S
O71          C81   1.281       .  A
O72         Ni79   1.926       .  S
O72          C82   1.282       .  A
O73         Ni79   1.928       .  S
O73          C83   1.282       .  A
O74         Ni79   1.911       .  S
O74          C84   1.279       .  A
O75         Ni80   1.914       .  S
O75          C84   1.281       .  A
O76         Ni80   1.918       .  S
O76          C83   1.281       .  A
O77         Ni80   1.935       .  S
O77          C82   1.284       .  A
O78         Ni80   1.921       .  S
O78          C81   1.283       .  A
Ni79        Ni80   2.389       .  S
C81        C1370   1.477       .  S
C82        C1341   1.488       .  S
C83        C1346   1.477       .  S
C84        C1350   1.469       .  S
O85         Ni93   1.896       .  S
O85          C95   1.279       .  A
O86         Ni93   1.918       .  S
O86          C96   1.281       .  A
O87         Ni93   1.917       .  S
O87          C97   1.280       .  A
O88         Ni93   1.909       .  S
O88          C98   1.281       .  A
O89         Ni94   1.900       .  S
O89          C98   1.277       .  A
O90         Ni94   1.917       .  S
O90          C97   1.281       .  A
O91         Ni94   1.922       .  S
O91          C96   1.281       .  A
O92         Ni94   1.914       .  S
O92          C95   1.279       .  A
Ni93        Ni94   2.392       .  S
C95        C1354   1.463       .  S
C96        C1378   1.470       .  S
C97        C1338   1.468       .  S
C98        C1366   1.459       .  S
N99         C103   1.361       .  A
N99         C100   1.363       .  A
N99        C1333   1.446       .  S
C100        C101   1.391       .  A
C100       C1325   1.498       .  S
C101        C102   1.373       .  A
C101        H104   1.080       .  S
C102        C103   1.380       .  A
C102        H105   1.082       .  S
C103       C1329   1.490       .  S
N106        C110   1.352       .  A
N106        C107   1.357       .  A
N106       C1334   1.446       .  S
C107        C108   1.390       .  A
C107       C1317   1.487       .  S
C108        C109   1.379       .  A
C108        H111   1.081       .  S
C109        C110   1.381       .  A
C109        H112   1.082       .  S
C110       C1321   1.477       .  S
N113        C117   1.352       .  A
N113        C114   1.351   1_545  A
N113        N120   1.408   1_545  S
C114        C115   1.380       .  A
C114       C1330   1.482       .  S
C115        C116   1.385   1_565  A
C115        H118   1.082       .  S
C116        C117   1.387       .  A
C116        H119   1.077       .  S
C117       C1313   1.481       .  S
N120        C124   1.352   1_565  A
N120        C121   1.353       .  A
C121        C122   1.383       .  A
C121       C1322   1.478       .  S
C122        C123   1.376       .  A
C122        H125   1.082       .  S
C123        C124   1.382   1_565  A
C123        H126   1.082       .  S
C124       C1310   1.475       .  S
N127        C131   1.361       .  A
N127        C128   1.368       .  A
N127       C1305   1.452       .  S
C128        C129   1.389       .  A
C128       C1361   1.499       .  S
C129        C130   1.374       .  A
C129        H132   1.081       .  S
C130        C131   1.377       .  A
C130        H133   1.079       .  S
C131       C1314   1.484       .  S
N134        C138   1.362       .  A
N134        C135   1.365       .  A
N134       C1306   1.452       .  S
C135        C136   1.387       .  A
C135       C1337   1.486       .  S
C136        C137   1.364       .  A
C136        H139   1.081       .  S
C137        C138   1.382       .  A
C137        H140   1.083       .  S
C138       C1309   1.483       .  S
N141        C145   1.357       .  A
N141        C142   1.357       .  A
N141       C1301   1.444       .  S
C142        C143   1.386       .  A
C142       C1374   1.486       .  S
C143        C144   1.381       .  A
C143        H146   1.082       .  S
C144        C145   1.383       .  A
C144        H147   1.076       .  S
C145       C1297   1.490       .  S
N148        C152   1.357       .  A
N148        C149   1.357       .  A
N148       C1302   1.442       .  S
C149        C150   1.386       .  A
C149       C1345   1.489       .  S
C150        C151   1.383       .  A
C150        H153   1.082       .  S
C151        C152   1.383       .  A
C151        H154   1.075       .  S
C152       C1293   1.491       .  S
N155        C159   1.350       .  A
N155        C156   1.350       .  A
N155        N162   1.408       .  S
C156        C157   1.382       .  A
C156       C1289   1.484       .  S
C157        C158   1.387       .  A
C157        H160   1.082       .  S
C158        C159   1.386       .  A
C158        H161   1.081       .  S
C159       C1298   1.476       .  S
N162        C166   1.350       .  A
N162        C163   1.350       .  A
C163        C164   1.386       .  A
C163       C1294   1.477       .  S
C164        C165   1.387       .  A
C164        H167   1.080       .  S
C165        C166   1.382       .  A
C165        H168   1.082       .  S
C166       C1285   1.484       .  S
N169        C173   1.360       .  A
N169        C170   1.361       .  A
N169       C1281   1.441       .  S
C170        C171   1.388       .  A
C170       C1277   1.497       .  S
C171        C172   1.379       .  A
C171        H174   1.081       .  S
C172        C173   1.381       .  A
C172        H175   1.082       .  S
C173       C1290   1.490       .  S
N176        C180   1.360       .  A
N176        C177   1.361       .  A
N176       C1282   1.442       .  S
C177        C178   1.390       .  A
C177       C1274   1.497       .  S
C178        C179   1.377       .  A
C178        H181   1.081       .  S
C179        C180   1.379       .  A
C179        H182   1.082       .  S
C180       C1286   1.486       .  S
N183        C187   1.367       .  A
N183        C184   1.368       .  A
N183       C1269   1.457       .  S
C184        C185   1.391       .  A
C184       C1261   1.499       .  S
C185        C186   1.368       .  A
C185        H188   1.080       .  S
C186        C187   1.374       .  A
C186        H189   1.083       .  S
C187       C1265   1.479       .  S
N190        C194   1.360       .  A
N190        C191   1.367       .  A
N190       C1270   1.452       .  S
C191        C192   1.390       .  A
C191       C1253   1.490       .  S
C192        C193   1.369       .  A
C192        H195   1.082       .  S
C193        C194   1.375       .  A
C193        H196   1.082       .  S
C194       C1257   1.473       .  S
N197        C201   1.364       .  A
N197        C198   1.358       .  A
N197        N204   1.414       .  S
C198        C199   1.378       .  A
C198       C1249   1.478   1_655  S
C199        C200   1.374       .  A
C199        H202   1.082   1_655  S
C200        C201   1.384       .  A
C200        H203   1.082       .  S
C201       C1266   1.487       .  S
N204        C208   1.359   1_655  A
N204        C205   1.360       .  A
C205        C206   1.381       .  A
C205       C1258   1.476       .  S
C206        C207   1.373   1_655  A
C206        H209   1.082       .  S
C207        C208   1.380       .  A
C207        H210   1.083       .  S
C208       C1245   1.479       .  S
N211        C215   1.354       .  A
N211        C212   1.359       .  A
N211       C1242   1.441       .  S
C212        C213   1.391       .  A
C212       C1237   1.495       .  S
C213        C214   1.378       .  A
C213        H216   1.081       .  S
C214        C215   1.379       .  A
C214        H217   1.082       .  S
C215       C1250   1.481       .  S
N218        C222   1.358       .  A
N218        C219   1.356       .  A
N218       C1241   1.444       .  S
C219        C220   1.385       .  A
C219       C1233   1.482       .  S
C220        C221   1.377       .  A
C220        H223   1.082       .  S
C221        C222   1.383       .  A
C221        H224   1.082       .  S
C222       C1246   1.480       .  S
O225       Ni233   1.923       .  S
O225        C235   1.281       .  A
O226       Ni233   1.932       .  S
O226        C236   1.283       .  A
O227       Ni233   1.917       .  S
O227        C237   1.281       .  A
O228       Ni233   1.900       .  S
O228        C238   1.279       .  A
O229       Ni234   1.928       .  S
O229        C238   1.282       .  A
O230       Ni234   1.933       .  S
O230        C237   1.283       .  A
O231       Ni234   1.915       .  S
O231        C236   1.280       .  A
O232       Ni234   1.894       .  S
O232        C235   1.279       .  A
Ni233      Ni234   2.388       .  S
C235       C1229   1.469       .  S
C236       C1273   1.477       .  S
C237       C1262   1.479       .  S
C238       C1225   1.475       .  S
O239       Ni247   1.898       .  S
O239        C249   1.278       .  A
O240       Ni247   1.917       .  S
O240        C250   1.279       .  A
O241       Ni247   1.936       .  S
O241        C251   1.284       .  A
O242       Ni247   1.931       .  S
O242        C252   1.284       .  A
O243       Ni248   1.894       .  S
O243        C252   1.276       .  A
O244       Ni248   1.912       .  S
O244        C251   1.279       .  A
O245       Ni248   1.935       .  S
O245        C250   1.284       .  A
O246       Ni248   1.927       .  S
O246        C249   1.283       .  A
Ni247      Ni248   2.390       .  S
C249       C1217   1.471       .  S
C250       C1221   1.477       .  S
C251       C1326   1.475       .  S
C252       C1213   1.466       .  S
O253       Ni261   1.910       .  S
O253        C263   1.279       .  A
O254       Ni261   1.918       .  S
O254        C264   1.279       .  A
O255       Ni261   1.922       .  S
O255        C265   1.282       .  A
O256       Ni261   1.902       .  S
O256        C266   1.281       .  A
O257       Ni262   1.925       .  S
O257        C266   1.281       .  A
O258       Ni262   1.933       .  S
O258        C265   1.283       .  A
O259       Ni262   1.934       .  S
O259        C264   1.285       .  A
O260       Ni262   1.919       .  S
O260        C263   1.281       .  A
Ni261      Ni262   2.388       .  S
C263       C1226   1.468       .  S
C264       C1209   1.479       .  S
C265       C1278   1.483       .  S
C266       C1214   1.476       .  S
O267       Ni275   1.899       .  S
O267        C277   1.277       .  A
O268       Ni275   1.918       .  S
O268        C278   1.280       .  A
O269       Ni275   1.926       .  S
O269        C279   1.282       .  A
O270       Ni275   1.920       .  S
O270        C280   1.282       .  A
O271       Ni276   1.904       .  S
O271        C280   1.278       .  A
O272       Ni276   1.922       .  S
O272        C279   1.281       .  A
O273       Ni276   1.925       .  S
O273        C278   1.283       .  A
O274       Ni276   1.917       .  S
O274        C277   1.282       .  A
Ni275      Ni276   2.391       .  S
C277       C1230   1.461       .  S
C278       C1318   1.474       .  S
C279       C1254   1.474       .  S
C280       C1218   1.468       .  S
N281        C285   1.361       .  A
N281        C282   1.364       .  A
N281       C1205   1.444       .  S
C282        C283   1.386       .  A
C282       C1210   1.492       .  S
C283        C284   1.373       .  A
C283        H286   1.082       .  S
C284        C285   1.380       .  A
C284        H287   1.082       .  S
C285       C1201   1.485       .  S
N288        C292   1.355       .  A
N288        C289   1.363       .  A
N288       C1206   1.443       .  S
C289        C290   1.391       .  A
C289       C1222   1.497       .  S
C290        C291   1.375       .  A
C290        H293   1.080       .  S
C291        C292   1.378       .  A
C291        H294   1.083       .  S
C292       C1197   1.480       .  S
N295        C299   1.359       .  A
N295        C296   1.364       .  A
N295        N302   1.426       .  S
C296        C297   1.388       .  A
C296       C1202   1.486       .  S
C297        C298   1.379       .  A
C297        H300   1.083       .  S
C298        C299   1.377       .  A
C298        H301   1.082       .  S
C299       C1193   1.482       .  S
N302        C306   1.361       .  A
N302        C303   1.369       .  A
C303        C304   1.378       .  A
C303       C1189   1.499       .  S
C304        C305   1.375       .  A
C304        H307   1.083       .  S
C305        C306   1.384       .  A
C305        H308   1.083       .  S
C306       C1198   1.479       .  S
N309        C313   1.356       .  A
N309        C310   1.363       .  A
N309       C1185   1.444       .  S
C310        C311   1.390       .  A
C310       C1181   1.493       .  S
C311        C312   1.376       .  A
C311        H314   1.081       .  S
C312        C313   1.380       .  A
C312        H315   1.082       .  S
C313       C1194   1.485       .  S
N316        C320   1.369       .  A
N316        C317   1.368       .  A
N316       C1186   1.446       .  S
C317        C318   1.386       .  A
C317       C1177   1.497       .  S
C318        C319   1.370       .  A
C318        H321   1.082       .  S
C319        C320   1.378       .  A
C319        H322   1.083       .  S
C320       C1190   1.496       .  S
O323       Ni331   1.898       .  S
O323        C333   1.280       .  A
O324       Ni331   1.920       .  S
O324        C334   1.281       .  A
O325       Ni331   1.927       .  S
O325        C335   1.282       .  A
O326       Ni331   1.918       .  S
O326        C336   1.280       .  A
O327       Ni332   1.898       .  S
O327        C336   1.280       .  A
O328       Ni332   1.919       .  S
O328        C335   1.281       .  A
O329       Ni332   1.918       .  S
O329        C334   1.280       .  A
O330       Ni332   1.912       .  S
O330        C333   1.279       .  A
Ni331      Ni332   2.390       .  S
C333       C1165   1.462       .  S
C334       C1173   1.472       .  S
C335       C1182   1.477       .  S
C336       C1169   1.468       .  S
O337       Ni345   1.932       .  S
O337        C347   1.284       .  A
O338       Ni345   1.934       .  S
O338        C348   1.284       .  A
O339       Ni345   1.923       .  S
O339        C349   1.282       .  A
O340       Ni345   1.908       .  S
O340        C350   1.279       .  A
O341       Ni346   1.914       .  S
O341        C350   1.280       .  A
O342       Ni346   1.920       .  S
O342        C349   1.280       .  A
O343       Ni346   1.914       .  S
O343        C348   1.280       .  A
O344       Ni346   1.896       .  S
O344        C347   1.277       .  A
Ni345      Ni346   2.390       .  S
C347       C1157   1.467       .  S
C348       C1238   1.478       .  S
C349       C1161   1.473       .  S
C350       C1153   1.466       .  S
O351       Ni359   1.917       .  S
O351        C361   1.282       .  A
O352       Ni359   1.933       .  S
O352        C362   1.284       .  A
O353       Ni359   1.908       .  S
O353        C363   1.279       .  A
O354       Ni359   1.899       .  S
O354        C364   1.279       .  A
O355       Ni360   1.923       .  S
O355        C364   1.282       .  A
O356       Ni360   1.930       .  S
O356        C363   1.283       .  A
O357       Ni360   1.904       .  S
O357        C362   1.277       .  A
O358       Ni360   1.896       .  S
O358        C361   1.276       .  A
Ni359      Ni360   2.393       .  S
C361       C1170   1.460       .  S
C362       C1234   1.468       .  S
C363       C1149   1.472       .  S
C364       C1154   1.470       .  S
O365       Ni373   1.905       .  S
O365        C375   1.280       .  A
O366       Ni373   1.925       .  S
O366        C376   1.282       .  A
O367       Ni373   1.935       .  S
O367        C377   1.284       .  A
O368       Ni373   1.929       .  S
O368        C378   1.282       .  A
O369       Ni374   1.900       .  S
O369        C378   1.281       .  A
O370       Ni374   1.919       .  S
O370        C377   1.281       .  A
O371       Ni374   1.912       .  S
O371        C376   1.280       .  A
O372       Ni374   1.904       .  S
O372        C375   1.278       .  A
Ni373      Ni374   2.389       .  S
C375       C1166   1.458       .  S
C376       C1146   1.473       .  S
C377       C1178   1.480       .  S
C378       C1158   1.479       .  S
N379        C383   1.366       .  A
N379        C380   1.365       .  A
N379       C1141   1.448       .  S
C380        C381   1.385       .  A
C380       C1174   1.486       .  S
C381        C382   1.368       .  A
C381        H384   1.082       .  S
C382        C383   1.378       .  A
C382        H385   1.082       .  S
C383       C1137   1.487       .  S
N386        C390   1.368       .  A
N386        C387   1.365       .  A
N386       C1142   1.449       .  S
C387        C388   1.384       .  A
C387       C1150   1.484       .  S
C388        C389   1.368       .  A
C388        H391   1.082       .  S
C389        C390   1.379       .  A
C389        H392   1.083       .  S
C390       C1133   1.490       .  S
N393        C397   1.365       .  A
N393        C394   1.359       .  A
N393        N400   1.432       .  S
C394        C395   1.386       .  A
C394       C1129   1.478       .  S
C395        C396   1.375       .  A
C395        H398   1.083       .  S
C396        C397   1.376       .  A
C396        H399   1.082       .  S
C397       C1138   1.485       .  S
N400        C404   1.363       .  A
N400        C401   1.366       .  A
C401        C402   1.377       .  A
C401       C1134   1.484       .  S
C402        C403   1.375       .  A
C402        H405   1.082       .  S
C403        C404   1.384       .  A
C403        H406   1.083       .  S
C404       C1125   1.480       .  S
N407        C411   1.357       .  A
N407        C408   1.360       .  A
N407       C1121   1.445       .  S
C408        C409   1.386       .  A
C408       C1117   1.482       .  S
C409        C410   1.372       .  A
C409        H412   1.082       .  S
C410        C411   1.381       .  A
C410        H413   1.083       .  S
C411       C1130   1.478       .  S
N414        C418   1.355       .  A
N414        C415   1.363       .  A
N414       C1122   1.443       .  S
C415        C416   1.391       .  A
C415       C1113   1.495       .  S
C416        C417   1.376       .  A
C416        H419   1.081       .  S
C417        C418   1.379       .  A
C417        H420   1.082       .  S
C418       C1126   1.482       .  S
N421        C425   1.363       .  A
N421        C422   1.364       .  A
N421       C1109   1.454       .  S
C422        C423   1.386       .  A
C422       C1101   1.489       .  S
C423        C424   1.369       .  A
C423        H426   1.082       .  S
C424        C425   1.379       .  A
C424        H427   1.083       .  S
C425       C1105   1.476       .  S
N428        C432   1.360       .  A
N428        C429   1.365       .  A
N428       C1110   1.448       .  S
C429        C430   1.387       .  A
C429       C1093   1.489       .  S
C430        C431   1.369       .  A
C430        H433   1.082       .  S
C431        C432   1.380       .  A
C431        H434   1.082       .  S
C432       C1097   1.482       .  S
N435        C439   1.350   1_554  A
N435        C436   1.353       .  A
N435        N442   1.409       .  S
C436        C437   1.381       .  A
C436       C1089   1.475       .  S
C437        C438   1.380   1_554  A
C437        H440   1.082       .  S
C438        C439   1.384       .  A
C438        H441   1.082       .  S
C439       C1106   1.473       .  S
N442        C446   1.351       .  A
N442        C443   1.354   1_554  A
C443        C444   1.382   1_556  A
C443       C1098   1.475       .  S
C444        C445   1.379       .  A
C444        H447   1.082   1_554  S
C445        C446   1.382       .  A
C445        H448   1.082       .  S
C446       C1086   1.474       .  S
N449        C453   1.358       .  A
N449        C450   1.363       .  A
N449       C1081   1.447       .  S
C450        C451   1.387       .  A
C450       C1162   1.488       .  S
C451        C452   1.371       .  A
C451        H454   1.082       .  S
C452        C453   1.380       .  A
C452        H455   1.082       .  S
C453       C1090   1.478       .  S
N456        C460   1.359       .  A
N456        C457   1.362       .  A
N456       C1082   1.451       .  S
C457        C458   1.387       .  A
C457       C1145   1.485       .  S
C458        C459   1.370       .  A
C458        H461   1.081       .  S
C459        C460   1.380       .  A
C459        H462   1.082       .  S
C460       C1085   1.477       .  S
N463        C467   1.365       .  A
N463        C464   1.366       .  A
N463       C1077   1.448       .  S
C464        C465   1.391       .  A
C464       C1069   1.500       .  S
C465        C466   1.372       .  A
C465        H468   1.080       .  S
C466        C467   1.375       .  A
C466        H469   1.082       .  S
C467       C1073   1.488       .  S
N470        C474   1.360       .  A
N470        C471   1.364       .  A
N470       C1078   1.449       .  S
C471        C472   1.389       .  A
C471       C1061   1.495       .  S
C472        C473   1.375       .  A
C472        H475   1.082       .  S
C473        C474   1.380       .  A
C473        H476   1.082       .  S
C474       C1065   1.486       .  S
N477        C481   1.356       .  A
N477        C478   1.348       .  A
N477        N484   1.410       .  S
C478        C479   1.382       .  A
C478       C1066   1.481   1_545  S
C479        C480   1.389       .  A
C479        H482   1.082       .  S
C480        C481   1.387       .  A
C480        H483   1.076       .  S
C481       C1057   1.489       .  S
N484        C488   1.354       .  A
N484        C485   1.361       .  A
C485        C486   1.384       .  A
C485       C1074   1.492   1_545  S
C486        C487   1.380       .  A
C486        H489   1.082   1_545  S
C487        C488   1.380       .  A
C487        H490   1.082       .  S
C488       C1053   1.478       .  S
N491        C495   1.357       .  A
N491        C492   1.363       .  A
N491       C1049   1.446       .  S
C492        C493   1.391       .  A
C492       C1045   1.497       .  S
C493        C494   1.375       .  A
C493        H496   1.080       .  S
C494        C495   1.379       .  A
C494        H497   1.082       .  S
C495       C1054   1.482       .  S
N498        C502   1.367       .  A
N498        C499   1.366       .  A
N498       C1050   1.454       .  S
C499        C500   1.386       .  A
C499       C1042   1.497       .  S
C500        C501   1.374       .  A
C500        H503   1.081       .  S
C501        C502   1.380       .  A
C501        H504   1.082       .  S
C502       C1058   1.481       .  S
O505       Ni513   1.927       .  S
O505        C515   1.283       .  A
O506       Ni513   1.932       .  S
O506        C516   1.284       .  A
O507       Ni513   1.918       .  S
O507        C517   1.280       .  A
O508       Ni513   1.899       .  S
O508        C518   1.276       .  A
O509       Ni514   1.928       .  S
O509        C518   1.285       .  A
O510       Ni514   1.938       .  S
O510        C517   1.284       .  A
O511       Ni514   1.917       .  S
O511        C516   1.280       .  A
O512       Ni514   1.891       .  S
O512        C515   1.277       .  A
Ni513      Ni514   2.389       .  S
C515       C1037   1.469       .  S
C516       C1114   1.477       .  S
C517       C1070   1.481       .  S
C518       C1033   1.469       .  S
O519       Ni527   1.926       .  S
O519        C529   1.283       .  A
O520       Ni527   1.935       .  S
O520        C530   1.283       .  A
O521       Ni527   1.923       .  S
O521        C531   1.282       .  A
O522       Ni527   1.908       .  S
O522        C532   1.278       .  A
O523       Ni528   1.913       .  S
O523        C532   1.282       .  A
O524       Ni528   1.921       .  S
O524        C531   1.280       .  A
O525       Ni528   1.916       .  S
O525        C530   1.280       .  A
O526       Ni528   1.898       .  S
O526        C529   1.278       .  A
Ni527      Ni528   2.390       .  S
C529       C1025   1.472       .  S
C530       C1030   1.477       .  S
C531       C1102   1.472       .  S
C532       C1021   1.468       .  S
O533       Ni541   1.915       .  S
O533        C543   1.282       .  A
O534       Ni541   1.925       .  S
O534        C544   1.282       .  A
O535       Ni541   1.907       .  S
O535        C545   1.278       .  A
O536       Ni541   1.910       .  S
O536        C546   1.278       .  A
O537       Ni542   1.918       .  S
O537        C546   1.284       .  A
O538       Ni542   1.933       .  S
O538        C545   1.283       .  A
O539       Ni542   1.914       .  S
O539        C544   1.279       .  A
O540       Ni542   1.906       .  S
O540        C543   1.277       .  A
Ni541      Ni542   2.392       .  S
C543       C1022   1.466       .  S
C544       C1118   1.470       .  S
C545       C1017   1.469       .  S
C546       C1034   1.472       .  S
O547       Ni555   1.918       .  S
O547        C557   1.281       .  A
O548       Ni555   1.927       .  S
O548        C558   1.282       .  A
O549       Ni555   1.924       .  S
O549        C559   1.282       .  A
O550       Ni555   1.906       .  S
O550        C560   1.279       .  A
O551       Ni556   1.912       .  S
O551        C560   1.280       .  A
O552       Ni556   1.921       .  S
O552        C559   1.281       .  A
O553       Ni556   1.927       .  S
O553        C558   1.283       .  A
O554       Ni556   1.908       .  S
O554        C557   1.279       .  A
Ni555      Ni556   2.390       .  S
C557       C1026   1.468       .  S
C558       C1062   1.481       .  S
C559       C1094   1.474       .  S
C560       C1038   1.463       .  S
N561        C565   1.360       .  A
N561        C562   1.359       .  A
N561       C1013   1.442       .  S
C562        C563   1.384       .  A
C562       C1018   1.484       .  S
C563        C564   1.372       .  A
C563        H566   1.082       .  S
C564        C565   1.385       .  A
C564        H567   1.082       .  S
C565       C1009   1.491       .  S
N568        C572   1.361       .  A
N568        C569   1.364       .  A
N568       C1014   1.448       .  S
C569        C570   1.389       .  A
C569       C1029   1.499       .  S
C570        C571   1.375       .  A
C570        H573   1.081       .  S
C571        C572   1.378       .  A
C571        H574   1.082       .  S
C572       C1005   1.478       .  S
N575        C579   1.356       .  A
N575        C576   1.364       .  A
N575        N582   1.410       .  S
C576        C577   1.382       .  A
C576       C1001   1.501       .  S
C577        C578   1.381       .  A
C577        H580   1.082       .  S
C578        C579   1.383       .  A
C578        H581   1.077       .  S
C579       C1006   1.488       .  S
N582        C586   1.350       .  A
N582        C583   1.362       .  A
C583        C584   1.386       .  A
C583       C1010   1.490       .  S
C584        C585   1.374       .  A
C584        H587   1.082       .  S
C585        C586   1.379       .  A
C585        H588   1.082       .  S
C586        C997   1.469       .  S
N589        C593   1.356       .  A
N589        C590   1.363       .  A
N589        C993   1.454       .  S
C590        C591   1.391       .  A
C590        C989   1.488       .  S
C591        C592   1.371       .  A
C591        H594   1.081       .  S
C592        C593   1.377       .  A
C592        H595   1.082       .  S
C593        C998   1.470       .  S
N596        C600   1.369       .  A
N596        C597   1.368       .  A
N596        C994   1.451       .  S
C597        C598   1.390       .  A
C597        C985   1.497       .  S
C598        C599   1.370       .  A
C598        H601   1.081       .  S
C599        C600   1.375       .  A
C599        H602   1.082       .  S
C600       C1002   1.492       .  S
O603       Ni611   1.906       .  S
O603        C613   1.281       .  A
O604       Ni611   1.924       .  S
O604        C614   1.282       .  A
O605       Ni611   1.918       .  S
O605        C615   1.281       .  A
O606       Ni611   1.900       .  S
O606        C616   1.278       .  A
O607       Ni612   1.914       .  S
O607        C616   1.280       .  A
O608       Ni612   1.921       .  S
O608        C615   1.281       .  A
O609       Ni612   1.912       .  S
O609        C614   1.279       .  A
O610       Ni612   1.906       .  S
O610        C613   1.278       .  A
Ni611      Ni612   2.393       .  S
C613        C977   1.462       .  S
C614        C990   1.469       .  S
C615        C981   1.472       .  S
C616        C973   1.463       .  S
O617       Ni625   1.917       .  S
O617        C627   1.280       .  A
O618       Ni625   1.923       .  S
O618        C628   1.282       .  A
O619       Ni625   1.919       .  S
O619        C629   1.281       .  A
O620       Ni625   1.913       .  S
O620        C630   1.279       .  A
O621       Ni626   1.905       .  S
O621        C630   1.281       .  A
O622       Ni626   1.929       .  S
O622        C629   1.283       .  A
O623       Ni626   1.933       .  S
O623        C628   1.284       .  A
O624       Ni626   1.913       .  S
O624        C627   1.281       .  A
Ni625      Ni626   2.390       .  S
C627        C961   1.472       .  S
C628        C969   1.484       .  S
C629       C1046   1.479       .  S
C630        C965   1.467       .  S
O631       Ni639   1.917       .  S
O631        C641   1.281       .  A
O632       Ni639   1.924       .  S
O632        C642   1.281       .  A
O633       Ni639   1.922       .  S
O633        C643   1.282       .  A
O634       Ni639   1.904       .  S
O634        C644   1.277       .  A
O635       Ni640   1.915       .  S
O635        C644   1.282       .  A
O636       Ni640   1.928       .  S
O636        C643   1.282       .  A
O637       Ni640   1.920       .  S
O637        C642   1.281       .  A
O638       Ni640   1.897       .  S
O638        C641   1.278       .  A
Ni639      Ni640   2.391       .  S
C641        C974   1.464       .  S
C642        C957   1.473       .  S
C643        C986   1.480       .  S
C644        C966   1.464       .  S
O645       Ni653   1.907       .  S
O645        C655   1.281       .  A
O646       Ni653   1.936       .  S
O646        C656   1.284       .  A
O647       Ni653   1.933       .  S
O647        C657   1.283       .  A
O648       Ni653   1.915       .  S
O648        C658   1.282       .  A
O649       Ni654   1.914       .  S
O649        C658   1.280       .  A
O650       Ni654   1.927       .  S
O650        C657   1.283       .  A
O651       Ni654   1.918       .  S
O651        C656   1.280       .  A
O652       Ni654   1.907       .  S
O652        C655   1.277       .  A
Ni653      Ni654   2.390       .  S
C655        C978   1.462       .  S
C656       C1041   1.481       .  S
C657        C953   1.485       .  S
C658        C962   1.471       .  S
N659        C663   1.357       .  A
N659        C660   1.362       .  A
N659        C949   1.441       .  S
C660        C661   1.388       .  A
C660        C941   1.492       .  S
C661        C662   1.375       .  A
C661        H664   1.081       .  S
C662        C663   1.381       .  A
C662        H665   1.082       .  S
C663        C945   1.487       .  S
N666        C670   1.358       .  A
N666        C667   1.364       .  A
N666        C950   1.441       .  S
C667        C668   1.389       .  A
C667        C933   1.499       .  S
C668        C669   1.379       .  A
C668        H671   1.081       .  S
C669        C670   1.381       .  A
C669        H672   1.082       .  S
C670        C937   1.495       .  S
N673        C677   1.360   1_554  A
N673        C674   1.361       .  A
N673        N680   1.425       .  S
C674        C675   1.384       .  A
C674        C930   1.485       .  S
C675        C676   1.380   1_554  A
C675        H678   1.083       .  S
C676        C677   1.381       .  A
C676        H679   1.082       .  S
C677        C946   1.485       .  S
N680        C684   1.362   1_554  A
N680        C681   1.363       .  A
C681        C682   1.386       .  A
C681        C926   1.483       .  S
C682        C683   1.381       .  A
C682        H685   1.083       .  S
C683        C684   1.380   1_554  A
C683        H686   1.082   1_554  S
C684        C938   1.492       .  S
N687        C691   1.360       .  A
N687        C688   1.364       .  A
N687        C921   1.447       .  S
C688        C689   1.386       .  A
C688       C1358   1.500       .  S
C689        C690   1.375       .  A
C689        H692   1.081       .  S
C690        C691   1.383       .  A
C690        H693   1.082       .  S
C691        C929   1.485       .  S
N694        C698   1.360       .  A
N694        C695   1.361       .  A
N694        C922   1.447       .  S
C695        C696   1.387       .  A
C695       C1342   1.500       .  S
C696        C697   1.383       .  A
C696        H699   1.082       .  S
C697        C698   1.383       .  A
C697        H700   1.079       .  S
C698        C925   1.490       .  S
N701        C705   1.356       .  A
N701        C702   1.363       .  A
N701        C918   1.454       .  S
C702        C703   1.390       .  A
C702        C982   1.486       .  S
C703        C704   1.373       .  A
C703        H706   1.082       .  S
C704        C705   1.378       .  A
C704        H707   1.082       .  S
C705        C913   1.473       .  S
N708        C712   1.370       .  A
N708        C709   1.372       .  A
N708        C917   1.451       .  S
C709        C710   1.389       .  A
C709        C954   1.502       .  S
C710        C711   1.369       .  A
C710        H713   1.081       .  S
C711        C712   1.375       .  A
C711        H714   1.082       .  S
C712        C909   1.494       .  S
N715        C719   1.349       .  A
N715        C716   1.355       .  A
N715        N722   1.411       .  S
C716        C717   1.382       .  A
C716        C905   1.479       .  S
C717        C718   1.381       .  A
C717        H720   1.082       .  S
C718        C719   1.384       .  A
C718        H721   1.082       .  S
C719        C914   1.471       .  S
N722        C726   1.356       .  A
N722        C723   1.362       .  A
C723        C724   1.383       .  A
C723        C910   1.503       .  S
C724        C725   1.384       .  A
C724        H727   1.082       .  S
C725        C726   1.383       .  A
C725        H728   1.077       .  S
C726        C901   1.486       .  S
N729        C733   1.356       .  A
N729        C730   1.359       .  A
N729        C897   1.443       .  S
C730        C731   1.391       .  A
C730        C893   1.497       .  S
C731        C732   1.376       .  A
C731        H734   1.080       .  S
C732        C733   1.380       .  A
C732        H735   1.082       .  S
C733        C906   1.480       .  S
N736        C740   1.362       .  A
N736        C737   1.363       .  A
N736        C898   1.447       .  S
C737        C738   1.388       .  A
C737        C889   1.500       .  S
C738        C739   1.376       .  A
C738        H741   1.081       .  S
C739        C740   1.379       .  A
C739        H742   1.082       .  S
C740        C902   1.479       .  S
N743        C747   1.360       .  A
N743        C744   1.365       .  A
N743        C885   1.445       .  S
C744        C745   1.388       .  A
C744        C877   1.495       .  S
C745        C746   1.372       .  A
C745        H748   1.081       .  S
C746        C747   1.380       .  A
C746        H749   1.082       .  S
C747        C881   1.487       .  S
N750        C754   1.363       .  A
N750        C751   1.365       .  A
N750        C886   1.451       .  S
C751        C752   1.388       .  A
C751        C869   1.494       .  S
C752        C753   1.373       .  A
C752        H755   1.082       .  S
C753        C754   1.379       .  A
C753        H756   1.082       .  S
C754        C873   1.481       .  S
N757        C761   1.358       .  A
N757        C758   1.358   1_655  A
N757        N764   1.411       .  S
C758        C759   1.383       .  A
C758        C865   1.484       .  S
C759        C760   1.378   1_455  A
C759        H762   1.082       .  S
C760        C761   1.381       .  A
C760        H763   1.082       .  S
C761        C882   1.480       .  S
N764        C768   1.357       .  A
N764        C765   1.356   1_655  A
C765        C766   1.381       .  A
C765        C861   1.477       .  S
C766        C767   1.378   1_455  A
C766        H769   1.082       .  S
C767        C768   1.384       .  A
C767        H770   1.082       .  S
C768        C874   1.482       .  S
N771        C775   1.366       .  A
N771        C772   1.367       .  A
N771        C857   1.454       .  S
C772        C773   1.388       .  A
C772        C970   1.499       .  S
C773        C774   1.371       .  A
C773        H776   1.081       .  S
C774        C775   1.379       .  A
C774        H777   1.082       .  S
C775        C866   1.485       .  S
N778        C782   1.360       .  A
N778        C779   1.365       .  A
N778        C858   1.448       .  S
C779        C780   1.388       .  A
C779        C958   1.490       .  S
C780        C781   1.370       .  A
C780        H783   1.082       .  S
C781        C782   1.380       .  A
C781        H784   1.082       .  S
C782        C862   1.481       .  S
O785       Ni793   1.902       .  S
O785        C795   1.279       .  A
O786       Ni793   1.920       .  S
O786        C796   1.281       .  A
O787       Ni793   1.923       .  S
O787        C797   1.281       .  A
O788       Ni793   1.916       .  S
O788        C798   1.281       .  A
O789       Ni794   1.905       .  S
O789        C798   1.279       .  A
O790       Ni794   1.922       .  S
O790        C797   1.282       .  A
O791       Ni794   1.937       .  S
O791        C796   1.284       .  A
O792       Ni794   1.926       .  S
O792        C795   1.283       .  A
Ni793      Ni794   2.388       .  S
C795        C853   1.474       .  S
C796        C890   1.483       .  S
C797        C942   1.475       .  S
C798        C849   1.466       .  S
O799       Ni807   1.905       .  S
O799        C809   1.279       .  A
O800       Ni807   1.923       .  S
O800        C810   1.281       .  A
O801       Ni807   1.929       .  S
O801        C811   1.283       .  A
O802       Ni807   1.906       .  S
O802        C812   1.282       .  A
O803       Ni808   1.916       .  S
O803        C812   1.279       .  A
O804       Ni808   1.924       .  S
O804        C811   1.281       .  A
O805       Ni808   1.934       .  S
O805        C810   1.284       .  A
O806       Ni808   1.925       .  S
O806        C809   1.283       .  A
Ni807      Ni808   2.390       .  S
C809        C845   1.474       .  S
C810       C1397   1.481       .  S
C811        C878   1.478       .  S
C812        C841   1.472       .  S
O813       Ni821   1.899       .  S
O813        C823   1.278       .  A
O814       Ni821   1.917       .  S
O814        C824   1.280       .  A
O815       Ni821   1.934       .  S
O815        C825   1.284       .  A
O816       Ni821   1.927       .  S
O816        C826   1.284       .  A
O817       Ni822   1.895       .  S
O817        C826   1.276       .  A
O818       Ni822   1.911       .  S
O818        C825   1.279       .  A
O819       Ni822   1.928       .  S
O819        C824   1.282       .  A
O820       Ni822   1.923       .  S
O820        C823   1.282       .  A
Ni821      Ni822   2.389       .  S
C823        C850   1.469       .  S
C824       C1406   1.474       .  S
C825        C894   1.476       .  S
C826        C842   1.464       .  S
O827       Ni835   1.915       .  S
O827        C837   1.281       .  A
O828       Ni835   1.924       .  S
O828        C838   1.281       .  A
O829       Ni835   1.930       .  S
O829        C839   1.282       .  A
O830       Ni835   1.923       .  S
O830        C840   1.282       .  A
O831       Ni836   1.910       .  S
O831        C840   1.280       .  A
O832       Ni836   1.927       .  S
O832        C839   1.282       .  A
O833       Ni836   1.929       .  S
O833        C838   1.283       .  A
O834       Ni836   1.914       .  S
O834        C837   1.280       .  A
Ni835      Ni836   2.390       .  S
C837        C854   1.470       .  S
C838        C870   1.479       .  S
C839        C934   1.481       .  S
C840        C846   1.473       .  S
C841        C842   1.339       .  D
C841        H843   1.086       .  S
C842        H844   1.087       .  S
C845        C846   1.347       .  D
C845        H847   1.086       .  S
C846        H848   1.087       .  S
C849        C850   1.345       .  D
C849        H851   1.087       .  S
C850        H852   1.087       .  S
C853        C854   1.345       .  D
C853        H855   1.086       .  S
C854        H856   1.087       .  S
C857        C858   1.347       .  D
C857        H859   1.086       .  S
C858        H860   1.084       .  S
C861        C862   1.345       .  D
C861        H863   1.086       .  S
C862        H864   1.085       .  S
C865        C866   1.349       .  D
C865        H867   1.086       .  S
C866        H868   1.085       .  S
C869        C870   1.355       .  D
C869        H871   1.086       .  S
C870        H872   1.085       .  S
C873        C874   1.347       .  D
C873        H875   1.085       .  S
C874        H876   1.086       .  S
C877        C878   1.356       .  D
C877        H879   1.086       .  S
C878        H880   1.084       .  S
C881        C882   1.347       .  D
C881        H883   1.085       .  S
C882        H884   1.086       .  S
C885        C886   1.345       .  D
C885        H887   1.085       .  S
C886        H888   1.086       .  S
C889        C890   1.356       .  D
C889        H891   1.086       .  S
C890        H892   1.084       .  S
C893        C894   1.354       .  D
C893        H895   1.086       .  S
C894        H896   1.082       .  S
C897        C898   1.351       .  D
C897        H899   1.084       .  S
C898        H900   1.086       .  S
C901        C902   1.350       .  D
C901        H903   1.086       .  S
C902        H904   1.085       .  S
C905        C906   1.344       .  D
C905        H907   1.086       .  S
C906        H908   1.082       .  S
C909        C910   1.345       .  D
C909        H911   1.083       .  S
C910        H912   1.086       .  S
C913        C914   1.338       .  D
C913        H915   1.087       .  S
C914        H916   1.086       .  S
C917        C918   1.356       .  D
C917        H919   1.085       .  S
C918        H920   1.085       .  S
C921        C922   1.358       .  D
C921        H923   1.086       .  S
C922        H924   1.086       .  S
C925        C926   1.349       .  D
C925        H927   1.086       .  S
C926        H928   1.087       .  S
C929        C930   1.347       .  D
C929        H931   1.086       .  S
C930        H932   1.087       .  S
C933        C934   1.357       .  D
C933        H935   1.086       .  S
C934        H936   1.084       .  S
C937        C938   1.347       .  D
C937        H939   1.086       .  S
C938        H940   1.087       .  S
C941        C942   1.355       .  D
C941        H943   1.086       .  S
C942        H944   1.085       .  S
C945        C946   1.345       .  D
C945        H947   1.086       .  S
C946        H948   1.087       .  S
C949        C950   1.344       .  D
C949        H951   1.086       .  S
C950        H952   1.086       .  S
C953        C954   1.362       .  D
C953        H955   1.084       .  S
C954        H956   1.086       .  S
C957        C958   1.356       .  D
C957        H959   1.085       .  S
C958        H960   1.086       .  S
C961        C962   1.343       .  D
C961        H963   1.087       .  S
C962        H964   1.087       .  S
C965        C966   1.341       .  D
C965        H967   1.087       .  S
C966        H968   1.087       .  S
C969        C970   1.358       .  D
C969        H971   1.084       .  S
C970        H972   1.086       .  S
C973        C974   1.343       .  D
C973        H975   1.087       .  S
C974        H976   1.087       .  S
C977        C978   1.339       .  D
C977        H979   1.087       .  S
C978        H980   1.087       .  S
C981        C982   1.354       .  D
C981        H983   1.085       .  S
C982        H984   1.086       .  S
C985        C986   1.358       .  D
C985        H987   1.086       .  S
C986        H988   1.084       .  S
C989        C990   1.354       .  D
C989        H991   1.086       .  S
C990        H992   1.084       .  S
C993        C994   1.357       .  D
C993        H995   1.085       .  S
C994        H996   1.084       .  S
C997        C998   1.337       .  D
C997        H999   1.086       .  S
C998       H1000   1.087       .  S
C1001      C1002   1.345       .  D
C1001      H1003   1.086       .  S
C1002      H1004   1.083       .  S
C1005      C1006   1.348       .  D
C1005      H1007   1.086       .  S
C1006      H1008   1.086       .  S
C1009      C1010   1.349       .  D
C1009      H1011   1.072       .  S
C1010      H1012   1.086       .  S
C1013      C1014   1.349       .  D
C1013      H1015   1.084       .  S
C1014      H1016   1.086       .  S
C1017      C1018   1.352       .  D
C1017      H1019   1.086       .  S
C1018      H1020   1.086       .  S
C1021      C1022   1.340       .  D
C1021      H1023   1.087       .  S
C1022      H1024   1.087       .  S
C1025      C1026   1.346       .  D
C1025      H1027   1.087       .  S
C1026      H1028   1.087       .  S
C1029      C1030   1.356       .  D
C1029      H1031   1.086       .  S
C1030      H1032   1.083       .  S
C1033      C1034   1.338       .  D
C1033      H1035   1.087       .  S
C1034      H1036   1.087       .  S
C1037      C1038   1.345       .  D
C1037      H1039   1.086       .  S
C1038      H1040   1.087       .  S
C1041      C1042   1.358       .  D
C1041      H1043   1.084       .  S
C1042      H1044   1.087       .  S
C1045      C1046   1.357       .  D
C1045      H1047   1.086       .  S
C1046      H1048   1.083       .  S
C1049      C1050   1.352       .  D
C1049      H1051   1.082       .  S
C1050      H1052   1.086       .  S
C1053      C1054   1.343       .  D
C1053      H1055   1.086       .  S
C1054      H1056   1.084       .  S
C1057      C1058   1.353       .  D
C1057      H1059   1.086       .  S
C1058      H1060   1.085       .  S
C1061      C1062   1.357       .  D
C1061      H1063   1.086       .  S
C1062      H1064   1.085       .  S
C1065      C1066   1.345       .  D
C1065      H1067   1.086       .  S
C1066      H1068   1.086       .  S
C1069      C1070   1.357       .  D
C1069      H1071   1.086       .  S
C1070      H1072   1.083       .  S
C1073      C1074   1.343       .  D
C1073      H1075   1.083       .  S
C1074      H1076   1.085       .  S
C1077      C1078   1.352       .  D
C1077      H1079   1.084       .  S
C1078      H1080   1.085       .  S
C1081      C1082   1.346       .  D
C1081      H1083   1.085       .  S
C1082      H1084   1.086       .  S
C1085      C1086   1.342       .  D
C1085      H1087   1.085       .  S
C1086      H1088   1.086       .  S
C1089      C1090   1.343       .  D
C1089      H1091   1.086       .  S
C1090      H1092   1.086       .  S
C1093      C1094   1.356       .  D
C1093      H1095   1.086       .  S
C1094      H1096   1.086       .  S
C1097      C1098   1.345       .  D
C1097      H1099   1.084       .  S
C1098      H1100   1.086       .  S
C1101      C1102   1.356       .  D
C1101      H1103   1.086       .  S
C1102      H1104   1.085       .  S
C1105      C1106   1.342       .  D
C1105      H1107   1.085       .  S
C1106      H1108   1.086       .  S
C1109      C1110   1.347       .  D
C1109      H1111   1.086       .  S
C1110      H1112   1.084       .  S
C1113      C1114   1.355       .  D
C1113      H1115   1.086       .  S
C1114      H1116   1.084       .  S
C1117      C1118   1.351       .  D
C1117      H1119   1.086       .  S
C1118      H1120   1.086       .  S
C1121      C1122   1.348       .  D
C1121      H1123   1.086       .  S
C1122      H1124   1.087       .  S
C1125      C1126   1.342       .  D
C1125      H1127   1.087       .  S
C1126      H1128   1.086       .  S
C1129      C1130   1.341       .  D
C1129      H1131   1.087       .  S
C1130      H1132   1.086       .  S
C1133      C1134   1.341       .  D
C1133      H1135   1.088       .  S
C1134      H1136   1.077       .  S
C1137      C1138   1.342       .  D
C1137      H1139   1.087       .  S
C1138      H1140   1.079       .  S
C1141      C1142   1.347       .  D
C1141      H1143   1.085       .  S
C1142      H1144   1.083       .  S
C1145      C1146   1.353       .  D
C1145      H1147   1.087       .  S
C1146      H1148   1.085       .  S
C1149      C1150   1.354       .  D
C1149      H1151   1.086       .  S
C1150      H1152   1.086       .  S
C1153      C1154   1.344       .  D
C1153      H1155   1.087       .  S
C1154      H1156   1.086       .  S
C1157      C1158   1.343       .  D
C1157      H1159   1.087       .  S
C1158      H1160   1.086       .  S
C1161      C1162   1.354       .  D
C1161      H1163   1.086       .  S
C1162      H1164   1.086       .  S
C1165      C1166   1.339       .  D
C1165      H1167   1.087       .  S
C1166      H1168   1.087       .  S
C1169      C1170   1.340       .  D
C1169      H1171   1.087       .  S
C1170      H1172   1.087       .  S
C1173      C1174   1.354       .  D
C1173      H1175   1.086       .  S
C1174      H1176   1.086       .  S
C1177      C1178   1.358       .  D
C1177      H1179   1.086       .  S
C1178      H1180   1.085       .  S
C1181      C1182   1.356       .  D
C1181      H1183   1.086       .  S
C1182      H1184   1.085       .  S
C1185      C1186   1.343       .  D
C1185      H1187   1.086       .  S
C1186      H1188   1.082       .  S
C1189      C1190   1.345       .  D
C1189      H1191   1.082       .  S
C1190      H1192   1.086       .  S
C1193      C1194   1.343       .  D
C1193      H1195   1.087       .  S
C1194      H1196   1.086       .  S
C1197      C1198   1.342       .  D
C1197      H1199   1.086       .  S
C1198      H1200   1.087       .  S
C1201      C1202   1.346       .  D
C1201      H1203   1.086       .  S
C1202      H1204   1.087       .  S
C1205      C1206   1.349       .  D
C1205      H1207   1.086       .  S
C1206      H1208   1.086       .  S
C1209      C1210   1.357       .  D
C1209      H1211   1.086       .  S
C1210      H1212   1.086       .  S
C1213      C1214   1.341       .  D
C1213      H1215   1.087       .  S
C1214      H1216   1.086       .  S
C1217      C1218   1.347       .  D
C1217      H1219   1.087       .  S
C1218      H1220   1.087       .  S
C1221      C1222   1.356       .  D
C1221      H1223   1.083       .  S
C1222      H1224   1.086       .  S
C1225      C1226   1.345       .  D
C1225      H1227   1.086       .  S
C1226      H1228   1.087       .  S
C1229      C1230   1.341       .  D
C1229      H1231   1.086       .  S
C1230      H1232   1.087       .  S
C1233      C1234   1.350       .  D
C1233      H1235   1.087       .  S
C1234      H1236   1.086       .  S
C1237      C1238   1.354       .  D
C1237      H1239   1.086       .  S
C1238      H1240   1.083       .  S
C1241      C1242   1.348       .  D
C1241      H1243   1.086       .  S
C1242      H1244   1.086       .  S
C1245      C1246   1.344       .  D
C1245      H1247   1.085       .  S
C1246      H1248   1.087       .  S
C1249      C1250   1.343       .  D
C1249      H1251   1.086       .  S
C1250      H1252   1.087       .  S
C1253      C1254   1.357       .  D
C1253      H1255   1.086       .  S
C1254      H1256   1.085       .  S
C1257      C1258   1.337       .  D
C1257      H1259   1.084       .  S
C1258      H1260   1.089       .  S
C1261      C1262   1.358       .  D
C1261      H1263   1.086       .  S
C1262      H1264   1.083       .  S
C1265      C1266   1.339       .  D
C1265      H1267   1.083       .  S
C1266      H1268   1.088       .  S
C1269      C1270   1.348       .  D
C1269      H1271   1.086       .  S
C1270      H1272   1.083       .  S
C1273      C1274   1.354       .  D
C1273      H1275   1.083       .  S
C1274      H1276   1.087       .  S
C1277      C1278   1.355       .  D
C1277      H1279   1.086       .  S
C1278      H1280   1.085       .  S
C1281      C1282   1.343       .  D
C1281      H1283   1.085       .  S
C1282      H1284   1.086       .  S
C1285      C1286   1.345       .  D
C1285      H1287   1.086       .  S
C1286      H1288   1.085       .  S
C1289      C1290   1.345       .  D
C1289      H1291   1.086       .  S
C1290      H1292   1.085       .  S
C1293      C1294   1.349       .  D
C1293      H1295   1.086       .  S
C1294      H1296   1.086       .  S
C1297      C1298   1.348       .  D
C1297      H1299   1.085       .  S
C1298      H1300   1.086       .  S
C1301      C1302   1.342       .  D
C1301      H1303   1.086       .  S
C1302      H1304   1.086       .  S
C1305      C1306   1.348       .  D
C1305      H1307   1.086       .  S
C1306      H1308   1.086       .  S
C1309      C1310   1.345       .  D
C1309      H1311   1.074       .  S
C1310      H1312   1.086       .  S
C1313      C1314   1.349       .  D
C1313      H1315   1.086       .  S
C1314      H1316   1.086       .  S
C1317      C1318   1.350       .  D
C1317      H1319   1.087       .  S
C1318      H1320   1.085       .  S
C1321      C1322   1.341       .  D
C1321      H1323   1.087       .  S
C1322      H1324   1.086       .  S
C1325      C1326   1.356       .  D
C1325      H1327   1.086       .  S
C1326      H1328   1.082       .  S
C1329      C1330   1.349       .  D
C1329      H1331   1.086       .  S
C1330      H1332   1.085       .  S
C1333      C1334   1.350       .  D
C1333      H1335   1.085       .  S
C1334      H1336   1.084       .  S
C1337      C1338   1.354       .  D
C1337      H1339   1.087       .  S
C1338      H1340   1.086       .  S
C1341      C1342   1.356       .  D
C1341      H1343   1.085       .  S
C1342      H1344   1.086       .  S
C1345      C1346   1.352       .  D
C1345      H1347   1.087       .  S
C1346      H1348   1.085       .  S
C1349      C1350   1.342       .  D
C1349      H1351   1.087       .  S
C1350      H1352   1.087       .  S
C1353      C1354   1.339       .  D
C1353      H1355   1.087       .  S
C1354      H1356   1.086       .  S
C1357      C1358   1.357       .  D
C1357      H1359   1.083       .  S
C1358      H1360   1.086       .  S
C1361      C1362   1.361       .  D
C1361      H1363   1.086       .  S
C1362      H1364   1.084       .  S
C1365      C1366   1.338       .  D
C1365      H1367   1.087       .  S
C1366      H1368   1.087       .  S
C1369      C1370   1.345       .  D
C1369      H1371   1.087       .  S
C1370      H1372   1.087       .  S
C1373      C1374   1.351       .  D
C1373      H1375   1.085       .  S
C1374      H1376   1.087       .  S
C1377      C1378   1.354       .  D
C1377      H1379   1.086       .  S
C1378      H1380   1.086       .  S
C1381      C1382   1.360       .  D
C1381      H1383   1.086       .  S
C1382      H1384   1.085       .  S
C1385      C1386   1.347       .  D
C1385      H1387   1.087       .  S
C1386      H1388   1.085       .  S
C1389      C1390   1.342       .  D
C1389      H1391   1.088       .  S
C1390      H1392   1.085       .  S
C1393      C1394   1.358       .  D
C1393      H1395   1.085       .  S
C1394      H1396   1.086       .  S
C1397      C1398   1.357       .  D
C1397      H1399   1.086       .  S
C1398      H1400   1.086       .  S
C1401      C1402   1.338       .  D
C1401      H1403   1.086       .  S
C1402      H1404   1.086       .  S
C1405      C1406   1.353       .  D
C1405      H1407   1.086       .  S
C1406      H1408   1.086       .  S
C1409      C1410   1.343       .  D
C1409      H1411   1.085       .  S
C1410      H1412   1.087       .  S
C1413      C1414   1.348       .  D
C1413      H1415   1.085       .  S
C1414      H1416   1.085       .  S
