geometry optimzed in LAMMPS
_audit_creation_date              2020-12-01 
_audit_creation_method            'lammps2cif' 
_symmetry_space_group_name_H-M    'P1' 
_symmetry_Int_Tables_number       1 
_symmetry_cell_setting            triclinic 
loop_ 
_symmetry_equiv_pos_as_xyz 
  x,y,z 
_cell_length_a                    40.75097967 
_cell_length_b                    33.76117837349044 
_cell_length_c                    36.947534490875256 
_cell_angle_alpha                 83.64737827268382 
_cell_angle_beta                  92.07012205187398 
_cell_angle_gamma                 93.96656482886557 
loop_ 
_atom_site_label 
_atom_site_type_symbol 
_atom_site_fract_x 
_atom_site_fract_y 
_atom_site_fract_z 
_atom_site_charge 
N1          N  0.11195883  0.25804305  0.14369147    -0.01900
C2          C  0.10264017  0.25834742  0.17885020     0.00700
C3          C  0.07234000  0.23855270  0.18429576    -0.22200
C4          C  0.06443090  0.22087788  0.15360669    -0.22400
C5          C  0.09099847  0.22866800  0.13082315     0.00600
H6          H  0.05778022  0.23534996  0.20809502     0.14400
H7          H  0.04414312  0.19871167  0.15133293     0.14500
N8          N  0.09177836  0.25037072  0.26181981    -0.01900
C9          C  0.07454124  0.26349778  0.28832715     0.00700
C10         C  0.05301381  0.23309571  0.30299181    -0.22200
C11         C  0.05905119  0.19981132  0.28681304    -0.22400
C12         C  0.08727304  0.21000313  0.26702231     0.00600
H13         H  0.03899940  0.23304527  0.32733870     0.14400
H14         H  0.05087592  0.16990144  0.29810070     0.14500
N15         N  0.03725884  0.37245145  0.40828968    -0.01900
C16         C  0.06482807  0.39006979  0.39245410     0.00700
C17         C  0.05799059  0.42715019  0.37501760    -0.22200
C18         C  0.02480924  0.43043674  0.37727268    -0.22400
C19         C  0.51015990  0.39396627  0.39300860     0.00600
H20         H  0.07401232  0.44651594  0.35700634     0.14400
H21         H  0.50850342  0.45201121  0.35926619     0.14500
N22         N  0.02399149  0.33454718  0.00769425    -0.01900
C23         C  0.05120531  0.31484321  0.01836244     0.00700
C24         C  0.04108382  0.27809423  0.03629186    -0.22200
C25         C  0.00802335  0.27901664  0.04211309    -0.22400
C26         C  0.49726709  0.31672600  0.02231423     0.00600
H27         H  0.05690601  0.25759148  0.05191703     0.14400
H28         H  0.49132739  0.26142425  0.05965710     0.14500
O29         O  0.15749943  0.30677621  0.41998423    -0.79300
O30         O  0.11016214  0.40478094  0.27973216    -0.64000
O31         O  0.15232535  0.32848109  0.34439753    -1.10600
C32         C  0.22755057  0.43699938  0.36299572     1.07600
O33         O  0.15657019  0.42971577  0.25425017    -0.77200
O34         O  0.21507522  0.40127247  0.27828454    -0.64800
Ni35       Ni  0.12705018  0.29610008  0.38076973     1.34900
C36         C  0.22526870  0.36928436  0.29471914     0.86400
O37         O  0.10026346  0.32664001  0.29506142    -0.77700
O38         O  0.09548242  0.28098987  0.34422120    -0.88000
C39         C  0.12547922  0.42223652  0.25297118     0.85900
O40         O  0.09946188  0.33517487  0.39539704    -0.66200
O41         O  0.21893446  0.45175640  0.33103995    -0.85500
C42         C  0.09014101  0.36705680  0.37788403     0.86800
C43         C  0.08963173  0.29311431  0.31082015     1.08300
H44         H  0.15182347  0.42103183  0.34433347     0.40100
O45         O  0.16225613  0.40404700  0.32940955    -1.08100
O46         O  0.21454346  0.35361685  0.32537009    -0.64800
Ni47       Ni  0.18454375  0.36578823  0.36103950     1.26300
O48         O  0.10014796  0.37971227  0.34634741    -0.65000
O49         O  0.21580415  0.40404073  0.37853637    -0.77300
C50         C  0.18876579  0.31243023  0.42090140     0.86100
O51         O  0.20438528  0.32639563  0.39306251    -0.64500
Ni52       Ni  0.18692304  0.43861903  0.29417921     1.27400
Ni53       Ni  0.13047029  0.36622149  0.31215824     1.26100
H54         H  0.16252730  0.31066775  0.33010953     0.40700
O55         O  0.20570998  0.35877027  0.01749477    -0.79300
O56         O  0.13860329  0.44504781  0.12965108    -0.64000
O57         O  0.18378629  0.36929791  0.08675772    -1.10600
C58         C  0.07692127  0.33581282  0.03928553     1.07600
O59         O  0.10156187  0.39792875  0.15056711    -0.77200
O60         O  0.09385731  0.32269292  0.12749037    -0.64800
Ni61       Ni  0.22189937  0.38504051  0.05926514     1.34900
C62         C  0.11492785  0.29747078  0.12276367     0.86400
O63         O  0.20103975  0.42428214  0.13585303    -0.77700
O64         O  0.24119282  0.40905966  0.10017309    -0.88000
C65         C  0.11922327  0.43014171  0.15396673     0.85900
O66         O  0.21022079  0.43678468  0.03561887    -0.66200
O67         O  0.06648152  0.35539264  0.06373668    -0.85500
C68         C  0.19107109  0.46229100  0.04444832     0.86800
C69         C  0.23116052  0.42172348  0.12890062     1.08300
H70         H  0.12032552  0.41030426  0.06113489     0.40100
O71         O  0.12513856  0.39018851  0.08096469    -1.08100
O72         O  0.13793229  0.30591025  0.10030244    -0.64800
Ni73       Ni  0.14603828  0.34899756  0.06140609     1.26300
O74         O  0.17202906  0.45405994  0.07128328    -0.65000
O75         O  0.10718012  0.33010782  0.03543650    -0.77300
C76         C  0.19026076  0.32440054  0.01765533     0.86100
O77         O  0.17005639  0.31159232  0.04179664    -0.64500
Ni78       Ni  0.08553961  0.37635200  0.10630971     1.27400
Ni79       Ni  0.16263940  0.40888786  0.10797362     1.26100
H80         H  0.19000760  0.34931793  0.10610724     0.40700
N81         N  0.27754017  0.40564549  0.16842342    -0.01900
C82         C  0.25696601  0.43363548  0.15458211     0.00700
C83         C  0.27523568  0.46835208  0.14334763    -0.22200
C84         C  0.30768649  0.46028630  0.14746727    -0.22400
C85         C  0.30824281  0.42015218  0.15955201     0.00600
H86         H  0.26641464  0.49318347  0.12548779     0.14400
H87         H  0.32745274  0.47867711  0.13395750     0.14500
N88         N  0.28077115  0.37562506  0.26976371    -0.01900
C89         C  0.25386146  0.35175305  0.28052493     0.00700
C90         C  0.26387878  0.31586259  0.29770714    -0.22200
C91         C  0.29751857  0.31972279  0.30095716    -0.22400
C92         C  0.30729376  0.35768026  0.28522618     0.00600
H93         H  0.24848814  0.29268293  0.31266592     0.14400
H94         H  0.31245536  0.29959220  0.31821945     0.14500
O95         O  0.40509904  0.43921349  0.25620654    -0.79300
O96         O  0.36209653  0.33303010  0.39228269    -0.64000
O97         O  0.40761197  0.41395123  0.33199712    -1.10600
C98         C  0.46859299  0.30784588  0.30631653     1.07600
O99         O  0.40755984  0.31040422  0.41895323    -0.77200
O100        O  0.46739723  0.34204749  0.39394172    -0.64800
Ni101      Ni  0.38324409  0.45026362  0.29963048     1.34900
C102        C  0.47972938  0.37442207  0.37760100     0.86400
O103        O  0.35859575  0.41043057  0.38150711    -0.77700
O104        O  0.36172812  0.46561252  0.34136757    -0.88000
C105        C  0.37717555  0.31784903  0.41996910     0.85900
O106        O  0.34571646  0.41526491  0.28703295    -0.66200
O107        O  0.46308076  0.29225809  0.33897538    -0.85500
C108        C  0.33693858  0.37966276  0.29965114     0.86800
C109        C  0.35472693  0.44715532  0.37254646     1.08300
H110        H  0.39781616  0.32103362  0.32865054     0.40100
O111        O  0.41098770  0.33812857  0.34363974    -1.08100
O112        O  0.46887536  0.38951599  0.34655986    -0.64800
Ni113      Ni  0.43347061  0.37806312  0.31214058     1.26300
O114        O  0.35135718  0.36164942  0.32682569    -0.65000
O115        O  0.45805119  0.34086795  0.29262535    -0.77300
C116        C  0.43541931  0.43334859  0.25234637     0.86100
O117        O  0.45304272  0.41892080  0.27884018    -0.64500
Ni118      Ni  0.43489667  0.30343129  0.37772343     1.27400
Ni119      Ni  0.38422374  0.37384436  0.36230957     1.26100
H120        H  0.42134867  0.42996668  0.34743057     0.40700
O121        O  0.46061387  0.41650951  0.14579721    -0.79300
O122        O  0.38594596  0.30343804  0.04475096    -0.64000
O123        O  0.43088840  0.39373543  0.07956877    -1.10600
C124        C  0.32966343  0.39795881  0.13891527     1.07600
O125        O  0.34243390  0.33629311  0.02706978    -0.77200
O126        O  0.32889989  0.40708020  0.05285310    -0.64800
Ni127      Ni  0.47203301  0.38717593  0.10596579     1.34900
C128        C  0.34772527  0.43849553  0.05402956     0.86400
O129        O  0.44504057  0.33922062  0.03178285    -0.77700
O130        O  0.48734317  0.35618169  0.06911501    -0.88000
C131        C  0.36395044  0.31192218  0.02123050     0.85900
O132        O  0.45836724  0.33994557  0.13679132    -0.66200
O133        O  0.31688984  0.37108141  0.11948301    -0.85500
C134        C  0.44006998  0.31030767  0.12855618     0.86800
C135        C  0.47530338  0.33984328  0.04133773     1.08300
H136        H  0.37523203  0.33652714  0.11328509     0.40100
O137        O  0.37512392  0.35626392  0.09227518    -1.08100
O138        O  0.37659498  0.43884070  0.06870931    -0.64800
Ni139      Ni  0.39497352  0.40347361  0.10803150     1.26300
O140        O  0.42488479  0.30939145  0.09830708    -0.65000
O141        O  0.35937305  0.41190027  0.13714266    -0.77300
C142        C  0.43865847  0.44078890  0.14958829     0.86100
O143        O  0.41744568  0.44875203  0.12470196    -0.64500
Ni144      Ni  0.33099431  0.35332320  0.07415814     1.27400
Ni145      Ni  0.40953134  0.34773407  0.06154604     1.26100
H146        H  0.43394154  0.41473784  0.05974560     0.40700
N147        N  0.45679614  0.24476246  0.14955945    -0.01900
C148        C  0.43641759  0.27371662  0.15324310     0.00700
C149        C  0.40483123  0.25681058  0.15884355    -0.22200
C150        C  0.40561899  0.21710349  0.15453944    -0.22400
C151        C  0.43775767  0.21116136  0.14707027     0.00600
H152        H  0.38263037  0.27270199  0.15861298     0.14400
H153        H  0.38426448  0.19660776  0.15251406     0.14500
N154        N  0.48046369  0.25207493  0.26926768    -0.01900
C155        C  0.48840323  0.28831691  0.28163320     0.00700
C156        C  0.50889178  0.31160043  0.25780680    -0.22200
C157        C  0.51337522  0.28998895  0.22956706    -0.22400
C158        C  0.49492115  0.25386564  0.23633470     0.00600
H159        H  0.51723499  0.34257559  0.25913133     0.14400
H160        H  0.52664075  0.30156346  0.20546452     0.14500
N161        N  0.35610501  0.00399436  0.41167986    -0.01900
C162        C  0.34280704  0.46835707  0.40156388     0.00700
C163        C  0.32122317  0.44985309  0.42704754    -0.22200
C164        C  0.31981015  0.47508815  0.45327400    -0.22400
C165        C  0.34291352  0.00746434  0.44444758     0.00600
H166        H  0.30832663  0.42073835  0.42685875     0.14400
H167        H  0.30556413  0.46910636  0.47752861     0.14500
N168        N  0.35278355  0.00443999  0.03591674    -0.01900
C169        C  0.33279813  0.47671642  0.04320449     0.00700
C170        C  0.30158270  0.48261082  0.05409612    -0.22200
C171        C  0.30342549  0.01453014  0.05787342    -0.22400
C172        C  0.33351975  0.03177923  0.04666931     0.00600
H173        H  0.28345822  0.45985783  0.06478479     0.14400
H174        H  0.28471727  0.02850006  0.07114098     0.14500
O175        O  0.40521233  0.18414870  0.40411461    -0.79300
O176        O  0.45764525  0.10750791  0.27249892    -0.64000
O177        O  0.40916281  0.16510805  0.33327807    -1.10600
C178        C  0.37426115  0.03390338  0.38770241     1.07600
O179        O  0.41768375  0.05952382  0.26902064    -0.77200
O180        O  0.36212831  0.05555823  0.30391917    -0.64800
Ni181      Ni  0.43236829  0.20052741  0.36302703     1.34900
C182        C  0.34537572  0.08638013  0.30194310     0.86400
O183        O  0.45123005  0.18755386  0.27575307    -0.77700
O184        O  0.46055998  0.22156583  0.32402927    -0.88000
C185        C  0.44340255  0.07895009  0.25683275     0.85900
O186        O  0.46494424  0.16518150  0.38329350    -0.66200
O187        O  0.39445921  0.02194105  0.36657419    -0.85500
C188        C  0.48273808  0.14567250  0.36514957     0.86800
C189        C  0.46278176  0.21875002  0.29014772     1.08300
H190        H  0.43600928  0.08559114  0.35286751     0.40100
O191        O  0.41904586  0.09214198  0.33471306    -1.08100
O192        O  0.35416584  0.11620028  0.31960208    -0.64800
Ni193      Ni  0.38802964  0.11851342  0.35894206     1.26300
O194        O  0.47533393  0.13892790  0.33260795    -0.65000
O195        O  0.36755875  0.07054946  0.38575810    -0.77300
C196        C  0.37541883  0.17027705  0.40754082     0.86100
O197        O  0.36104144  0.14913437  0.38451414    -0.64500
Ni198      Ni  0.40614498  0.04290779  0.31805126     1.27400
Ni199      Ni  0.43516797  0.13809352  0.30349782     1.26100
H200        H  0.39321957  0.17968101  0.31811724     0.40700
O201        O  0.35069885  0.16488696  0.01845459    -0.79300
O202        O  0.41069984  0.05451034  0.14134525    -0.64000
O203        O  0.38106895  0.14693042  0.08651921    -1.10600
C204        C  0.48563805  0.16294358  0.03666531     1.07600
O205        O  0.46304007  0.07714876  0.14817114    -0.77200
O206        O  0.46152891  0.15370775  0.13355377    -0.64800
Ni207      Ni  0.33739608  0.15152736  0.06809887     1.34900
C208        C  0.44580174  0.18361853  0.12163414     0.86400
O209        O  0.35529653  0.09244719  0.14231562    -0.77700
O210        O  0.32116675  0.13810482  0.11660308    -0.88000
C211        C  0.43716471  0.05796100  0.16026197     0.85900
O212        O  0.32923462  0.09759335  0.05812680    -0.66200
O213        O  0.49460929  0.15044375  0.06888590    -0.85500
C214        C  0.34696328  0.06790315  0.06122290     0.86800
C215        C  0.32868676  0.11064903  0.14156288     1.08300
H216        H  0.43307249  0.08706037  0.06777882     0.40100
O217        O  0.43280257  0.10812156  0.08345747    -1.08100
O218        O  0.43697057  0.19116106  0.08821399    -0.64800
Ni219      Ni  0.41769949  0.15450426  0.05560116     1.26300
O220        O  0.37428879  0.06649232  0.07904023    -0.65000
O221        O  0.45555372  0.16187468  0.02592754    -0.77300
C222        C  0.37488031  0.18765723  0.00606805     0.86100
O223        O  0.39884474  0.19775938  0.02672239    -0.64500
Ni224      Ni  0.47548086  0.11323324  0.10705990     1.27400
Ni225      Ni  0.39444306  0.10000493  0.11338815     1.26100
H226        H  0.38303893  0.16709627  0.10297031     0.40700
N227        N  0.28203004  0.12057394  0.18090526    -0.01900
C228        C  0.25220863  0.09881057  0.17885229     0.00700
C229        C  0.25833253  0.05871361  0.18011612    -0.22200
C230        C  0.29098385  0.05775847  0.17227733    -0.22400
C231        C  0.30360500  0.09661689  0.16879750     0.05400
H232        H  0.24015153  0.03443554  0.17643466     0.14400
H233        H  0.30269680  0.03317045  0.16334719     0.14500
N234        N  0.28809596  0.10860366  0.27999833    -0.01900
C235        C  0.31328987  0.08328506  0.28028224     0.00700
C236        C  0.30009185  0.04428872  0.27976267    -0.22200
C237        C  0.26849669  0.04425343  0.29000148    -0.22400
C238        C  0.26304680  0.08334300  0.29380021     0.00600
H239        H  0.31334040  0.01748706  0.28031071     0.14400
H240        H  0.25182160  0.01821580  0.29602837     0.14500
N241        N  0.23657300  0.97431903  0.41011670    -0.01900
C242        C  0.25015264  0.46202069  0.38364414     0.00700
C243        C  0.27641488  0.48282027  0.36623165    -0.22200
C244        C  0.27371834  0.01772599  0.38281171    -0.22400
C245        C  0.24465386  0.01356111  0.40160242     0.00600
H246        H  0.28893988  0.47386340  0.34344949     0.14400
H247        H  0.28434971  0.04538804  0.36904643     0.14500
N248        N  0.18875378  0.50046397  0.02168832    -0.01900
C249        C  0.18485328  0.50168040  0.98462747     0.00700
C250        C  0.23233517  0.03978518  0.98251395    -0.22200
C251        C  0.23226740  0.06132179  0.01117102    -0.22400
C252        C  0.21244477  0.04036218  0.03755165     0.00600
H253        H  0.25689049  0.03584929  0.46769837     0.14400
H254        H  0.24378557  0.09118515  0.01138877     0.14500
N255        N  0.04187340  0.14177003  0.38982127    -0.01900
C256        C  0.06399217  0.11605072  0.38275380     0.00700
C257        C  0.04790758  0.07936096  0.37808761    -0.22200
C258        C  0.01482062  0.08404805  0.37999030    -0.22400
C259        C  0.01161049  0.12318398  0.38628908     0.00600
H260        H  0.05844477  0.05392524  0.36862650     0.14400
H261        H  0.99530953  0.06310078  0.37195655     0.14500
N262        N  0.04244488  0.16860794  0.00814947    -0.01900
C263        C  0.04829581  0.18671391  0.97378681     0.00700
C264        C  0.02682300  0.21673127  0.96507476    -0.22200
C265        C  0.50327683  0.21160140  0.98454456    -0.22400
C266        C  0.01342704  0.18266881  0.01749906     0.00600
H267        H  0.02736422  0.24235481  0.44122308     0.14400
H268        H  0.48173617  0.22884147  0.98301375     0.14500
O269        O  0.15023996  0.04005653  0.26900084    -0.79300
O270        O  0.20984011  0.14407317  0.39314539    -0.64000
O271        O  0.16057171  0.06948657  0.33752674    -1.10600
C272        C  0.11471842  0.18754419  0.28268011     1.07600
O273        O  0.16461110  0.17501365  0.40004965    -0.77200
O274        O  0.10700233  0.16514020  0.36408760    -0.64800
Ni275      Ni  0.18035884  0.03440985  0.31046590     1.34900
C276        C  0.09534148  0.12906097  0.36515392     0.86400
O277        O  0.20692846  0.06440508  0.39457354    -0.77700
O278        O  0.21164327  0.02469221  0.35004925    -0.88000
C279        C  0.19239324  0.16357373  0.41199534     0.85900
O280        O  0.20616648  0.07808324  0.28740850    -0.66200
O281        O  0.13527315  0.20624871  0.30241984    -0.85500
C282        C  0.23036347  0.09379454  0.30396007     0.86800
C283        C  0.21908468  0.03550911  0.38163984     1.08300
H284        H  0.18338567  0.15632483  0.31390756     0.40100
O285        O  0.16764225  0.14534478  0.33191296    -1.08100
O286        O  0.10790831  0.10358555  0.34838234    -0.64800
Ni287      Ni  0.13745785  0.10934156  0.30953746     1.26300
O288        O  0.22679025  0.10839751  0.33396031    -0.65000
O289        O  0.11260313  0.14979810  0.28312270    -0.77300
C290        C  0.12153075  0.05271465  0.26409008     0.86100
O291        O  0.10925563  0.07178368  0.28714983    -0.64500
Ni292      Ni  0.15009186  0.18915247  0.35076587     1.27400
Ni293      Ni  0.18763109  0.10600426  0.36410821     1.26100
H294        H  0.14630218  0.05326726  0.35441704     0.40700
O295        O  0.09559365  0.08413138  0.15471581    -0.79300
O296        O  0.16201609  0.19528998  0.02878904    -0.64000
O297        O  0.11996875  0.10779716  0.08589115    -1.10600
C298        C  0.22612639  0.11145494  0.15055010     1.07600
O299        O  0.20529771  0.15856262  0.02673326    -0.77200
O300        O  0.22323773  0.09370829  0.07315016    -0.64800
Ni301      Ni  0.07883851  0.10766654  0.10764922     1.34900
C302        C  0.20223220  0.06534615  0.06657587     0.86400
O303        O  0.09837082  0.16197969  0.02745936    -0.77700
O304        O  0.05835337  0.13041069  0.06242594    -0.88000
C305        C  0.18455064  0.18207885  0.01106829     0.85900
O306        O  0.08494361  0.15996811  0.12314782    -0.66200
O307        O  0.23367391  0.14158907  0.12763663    -0.85500
C308        C  0.10083126  0.19302926  0.11282708     0.86800
C309        C  0.06769933  0.15210061  0.03352406     1.08300
H310        H  0.17422312  0.16539652  0.11001319     0.40100
O311        O  0.17473058  0.14630661  0.09242021    -1.08100
O312        O  0.17344022  0.06372022  0.07951650    -0.64800
Ni313      Ni  0.15869951  0.09706102  0.11604928     1.26300
O314        O  0.12280060  0.19553165  0.08848736    -0.65000
O315        O  0.19911750  0.08932400  0.14703999    -0.77300
C316        C  0.11643445  0.05754690  0.16284150     0.86100
O317        O  0.13781806  0.05082802  0.14063150    -0.64500
Ni318      Ni  0.21853920  0.14979482  0.07747581     1.27400
Ni319      Ni  0.13780974  0.15487700  0.05899519     1.26100
H320        H  0.11719299  0.08771407  0.06909716     0.40700
C321        C  0.10469742  0.05143157  0.22823439    -0.14800
C322        C  0.12081612  0.03980569  0.20063744    -0.30000
H323        H  0.08288994  0.06816367  0.22270975     0.14200
H324        H  0.14303148  0.02408199  0.20660948     0.14800
C325        C  0.20217643  0.16897548  0.45018690    -0.14800
C326        C  0.18301444  0.18765722  0.47126342    -0.30000
H327        H  0.22271066  0.15282864  0.46232763     0.14200
H328        H  0.16253576  0.20380488  0.45895461     0.14800
C329        C  0.04837584  0.17584785  0.40954125    -0.14800
C330        C  0.06269061  0.17125222  0.44344842    -0.30000
H331        H  0.03331921  0.20067631  0.40144123     0.14200
H332        H  0.07582771  0.14459051  0.45136104     0.14800
C333        C  0.20866675  0.47663518  0.42714120    -0.14800
C334        C  0.21110954  0.47395697  0.46376350    -0.30000
H335        H  0.18517047  0.48110241  0.41302604     0.14200
H336        H  0.18546491  0.98326111  0.45044537     0.14800
C337        C  0.29515724  0.13454754  0.21521780    -0.14800
C338        C  0.27744304  0.13145255  0.24582004    -0.30000
H339        H  0.32178722  0.13567905  0.21967702     0.14200
H340        H  0.25118288  0.13475084  0.24127667     0.14800
C341        C  0.43621351  0.04759367  0.19979668    -0.14800
C342        C  0.45469524  0.07096267  0.22130626    -0.30000
H343        H  0.41487946  0.02966590  0.21058800     0.14200
H344        H  0.47511724  0.09043183  0.21020959     0.14800
C345        C  0.35963746  0.17437525  0.44208157    -0.14800
C346        C  0.37575090  0.19591962  0.46660246    -0.30000
H347        H  0.33864985  0.15402478  0.44997168     0.14200
H348        H  0.39691826  0.21574292  0.45824473     0.14800
C349        C  0.35744090  0.03105558  0.47327536    -0.14800
C350        C  0.36922516  0.00958680  0.50373259    -0.30000
H351        H  0.34360228  0.05659915  0.47692126     0.14200
H352        H  0.38628579  0.98749427  0.99775779     0.14800
C353        C  0.48389442  0.22899758  0.20709097    -0.14800
C354        C  0.48618466  0.24418724  0.17176711    -0.30000
H355        H  0.46468502  0.20586736  0.21369165     0.14200
H356        H  0.50486236  0.26751528  0.16371853     0.14800
C357        C  0.44952957  0.43779627  0.21574034    -0.14800
C358        C  0.43270864  0.45253697  0.18593317    -0.30000
H359        H  0.47219059  0.42340974  0.21278940     0.14200
H360        H  0.40993273  0.46658216  0.18903439     0.14800
C361        C  0.35984517  0.31495037  0.45454335    -0.14800
C362        C  0.37204042  0.29566326  0.48478696    -0.30000
H363        H  0.33954512  0.33393231  0.45604694     0.14200
H364        H  0.39257117  0.27723846  0.48273022     0.14800
C365        C  0.27149111  0.38434351  0.20384656    -0.14800
C366        C  0.28282453  0.39934153  0.23486090    -0.30000
H367        H  0.25785166  0.35546003  0.20535384     0.14200
H368        H  0.29727770  0.42771071  0.23299902     0.14800
C369        C  0.10751367  0.42804337  0.21804785    -0.14800
C370        C  0.12309689  0.44607638  0.18904138    -0.30000
H371        H  0.08496303  0.40947997  0.21463222     0.14200
H372        H  0.14518742  0.46531967  0.19281087     0.14800
C373        C  0.20621301  0.31003759  0.45622615    -0.14800
C374        C  0.18991106  0.29443741  0.48565149    -0.30000
H375        H  0.22781677  0.33039974  0.45887777     0.14200
H376        H  0.16914596  0.27288189  0.48268048     0.14800
C377        C  0.02358096  0.35778320  0.47279405    -0.14800
C378        C  0.03846711  0.34792441  0.44305306    -0.30000
H379        H  0.00761112  0.38245861  0.46971091     0.14200
H380        H  0.05442059  0.32325496  0.44619124     0.14800
C381        C  0.12358001  0.27700637  0.20712936    -0.14800
C382        C  0.11949505  0.27237847  0.24370438    -0.30000
H383        H  0.14534955  0.29481929  0.19738115     0.14200
H384        H  0.13765257  0.28800861  0.26014372     0.14800
N385        N  0.11225517  0.24964425  0.64651650    -0.01900
C386        C  0.10262957  0.25053231  0.68159084     0.00700
C387        C  0.07211918  0.23099878  0.68686904    -0.22200
C388        C  0.06461454  0.21257655  0.65649767    -0.22400
C389        C  0.09108039  0.22052878  0.63363739     0.00600
H390        H  0.05659710  0.22934025  0.70988980     0.14400
H391        H  0.04402462  0.19090085  0.65389965     0.14500
N392        N  0.08922507  0.25059154  0.76424161    -0.01900
C393        C  0.07236681  0.26532250  0.79027131     0.00700
C394        C  0.05035417  0.23588946  0.80565844    -0.22200
C395        C  0.05584045  0.20158751  0.79073131    -0.22400
C396        C  0.08385713  0.21033495  0.77037237     0.00600
H397        H  0.03643692  0.23716912  0.82985653     0.14400
H398        H  0.04730178  0.17216514  0.80291112     0.14500
N399        N  0.03273418  0.37453914  0.90836284    -0.01900
C400        C  0.06008821  0.39321626  0.89306583     0.00700
C401        C  0.05259894  0.43025540  0.87605389    -0.22200
C402        C  0.01921024  0.43234820  0.87805185    -0.22400
C403        C  0.50449800  0.38784293  0.89053117     0.00600
H404        H  0.06842456  0.45039561  0.85846094     0.14400
H405        H  0.50271990  0.44662025  0.85798120     0.14500
N406        N  0.02605417  0.33463250  0.50814363    -0.01900
C407        C  0.05113297  0.31140830  0.51952181     0.00700
C408        C  0.03780732  0.27609830  0.53742349    -0.22200
C409        C  0.00523124  0.28133166  0.54255527    -0.22400
C410        C  0.49988829  0.31223759  0.52348124     0.00600
H411        H  0.05155819  0.25363053  0.55344428     0.14400
H412        H  0.49488030  0.25728462  0.56141749     0.14500
O413        O  0.15502963  0.31342126  0.92169553    -0.79300
O414        O  0.10504514  0.40772969  0.77976092    -0.64000
O415        O  0.14906588  0.33465270  0.84594321    -1.10600
C416        C  0.22195321  0.44526211  0.86372181     1.07600
O417        O  0.15085400  0.43601332  0.75518304    -0.77200
O418        O  0.20872706  0.40695113  0.77892291    -0.64800
Ni419      Ni  0.12472038  0.30140973  0.88240574     1.34900
C420        C  0.21960948  0.37583014  0.79626488     0.86400
O421        O  0.09777354  0.32931818  0.79588455    -0.77700
O422        O  0.09368852  0.28458072  0.84575246    -0.88000
C423        C  0.12027236  0.42556092  0.75308962     0.85900
O424        O  0.09621953  0.33987755  0.89643495    -0.66200
O425        O  0.21355341  0.45853663  0.83128830    -0.85500
C426        C  0.08585551  0.37099225  0.87848694     0.86800
C427        C  0.08775935  0.29571925  0.81209481     1.08300
H428        H  0.14538613  0.42725079  0.84474771     0.40100
O429        O  0.15657452  0.41045299  0.83032734    -1.08100
O430        O  0.21020136  0.36195183  0.82777670    -0.64800
Ni431      Ni  0.17972537  0.37353484  0.86262842     1.26300
O432        O  0.09509385  0.38329289  0.84658854    -0.65000
O433        O  0.20976720  0.41313708  0.88035005    -0.77300
C434        C  0.18624947  0.32020362  0.92187914     0.86100
O435        O  0.20096673  0.33528647  0.89396858    -0.64500
Ni436      Ni  0.18120595  0.44501739  0.79491547     1.27400
Ni437      Ni  0.12633066  0.37077231  0.81299028     1.26100
H438        H  0.16007112  0.31719092  0.83199592     0.40700
O439        O  0.20681556  0.34911039  0.51898839    -0.79300
O440        O  0.14114590  0.43614445  0.63227342    -0.64000
O441        O  0.18481791  0.35898729  0.58881158    -1.10600
C442        C  0.07753873  0.32922324  0.54166456     1.07600
O443        O  0.10356155  0.39003428  0.65362047    -0.77200
O444        O  0.09579973  0.31482319  0.63096319    -0.64800
Ni445      Ni  0.22303775  0.37449962  0.56119293     1.34900
C446        C  0.11581138  0.28880068  0.62526936     0.86400
O447        O  0.20283907  0.41438788  0.63767890    -0.77700
O448        O  0.24260004  0.39828480  0.60201535    -0.88000
C449        C  0.12020753  0.42318220  0.65562309     0.85900
O450        O  0.21125667  0.42612938  0.53786795    -0.66200
O451        O  0.06776588  0.34725413  0.56751212    -0.85500
C452        C  0.19193411  0.45153705  0.54644959     0.86800
C453        C  0.23279752  0.41170763  0.63045728     1.08300
H454        H  0.12163302  0.40146936  0.56431051     0.40100
O455        O  0.12652522  0.38109361  0.58386795    -1.08100
O456        O  0.13793783  0.29615401  0.60153382    -0.64800
Ni457      Ni  0.14670449  0.33997975  0.56321136     1.26300
O458        O  0.17326781  0.44377269  0.57354948    -0.65000
O459        O  0.10752514  0.32304366  0.53689062    -0.77300
C460        C  0.19039771  0.31556501  0.51805375     0.86100
O461        O  0.16997324  0.30264962  0.54205036    -0.64500
Ni462      Ni  0.08725928  0.36808041  0.60973081     1.27400
Ni463      Ni  0.16427166  0.39906925  0.61048655     1.26100
H464        H  0.19078117  0.33864637  0.60794508     0.40700
N465        N  0.28023816  0.39818066  0.66873434    -0.01900
C466        C  0.25860812  0.42504582  0.65525512     0.00700
C467        C  0.27555841  0.46031548  0.64301756    -0.22200
C468        C  0.30830674  0.45372951  0.64613143    -0.22400
C469        C  0.31019003  0.41390516  0.65869650     0.00600
H470        H  0.26558519  0.48437532  0.62511262     0.14400
H471        H  0.32728777  0.47273470  0.63184479     0.14500
N472        N  0.27438017  0.37948968  0.77037802    -0.01900
C473        C  0.24722022  0.35687982  0.78193125     0.00700
C474        C  0.25622748  0.32033670  0.79865733    -0.22200
C475        C  0.28991245  0.32232503  0.80053143    -0.22400
C476        C  0.30055777  0.35992314  0.78462455     0.00600
H477        H  0.24045810  0.29790886  0.81403025     0.14400
H478        H  0.30456345  0.30136890  0.81721595     0.14500
O479        O  0.40103709  0.43864027  0.75470919    -0.79300
O480        O  0.35588643  0.33340512  0.89211323    -0.64000
O481        O  0.40222581  0.41264026  0.83059018    -1.10600
C482        C  0.45979473  0.30359261  0.80346796     1.07600
O483        O  0.40121516  0.30865756  0.91720628    -0.77200
O484        O  0.46171747  0.33558978  0.89033942    -0.64800
Ni485      Ni  0.37894435  0.45000762  0.79825580     1.34900
C486        C  0.47380100  0.36880909  0.87523368     0.86400
O487        O  0.35416218  0.41132637  0.88068121    -0.77700
O488        O  0.35744579  0.46607979  0.84005630    -0.88000
C489        C  0.37132721  0.31768234  0.91938293     0.85900
O490        O  0.34095586  0.41566186  0.78543821    -0.66200
O491        O  0.45237030  0.28627142  0.83504717    -0.85500
C492        C  0.33082287  0.38076509  0.79888327     0.86800
C493        C  0.34966848  0.44787381  0.87114982     1.08300
H494        H  0.38961696  0.32046808  0.82658402     0.40100
O495        O  0.40354546  0.33650647  0.84182644    -1.08100
O496        O  0.46220688  0.38578925  0.84540436    -0.64800
Ni497      Ni  0.42708746  0.37581893  0.81067612     1.26300
O498        O  0.34438187  0.36267590  0.82662205    -0.65000
O499        O  0.45115118  0.33803633  0.79116436    -0.77300
C500        C  0.43122407  0.43148419  0.75138006     0.86100
O501        O  0.44799719  0.41630862  0.77820404    -0.64500
Ni502      Ni  0.42645012  0.29960950  0.87491804     1.27400
Ni503      Ni  0.37834182  0.37344381  0.86130865     1.26100
H504        H  0.41639578  0.42827141  0.84590879     0.40700
O505        O  0.46070585  0.41259380  0.64620978    -0.79300
O506        O  0.38854647  0.29883628  0.54439450    -0.64000
O507        O  0.43305767  0.38922906  0.57920025    -1.10600
C508        C  0.33190043  0.39215672  0.63832116     1.07600
O509        O  0.34461105  0.33104988  0.52726675    -0.77200
O510        O  0.32976229  0.40023054  0.55412587    -0.64800
Ni511      Ni  0.47316989  0.38229010  0.60718739     1.34900
C512        C  0.34861458  0.43176911  0.55328428     0.86400
O513        O  0.44769881  0.33553629  0.53146649    -0.77700
O514        O  0.48899162  0.35045884  0.57098600    -0.88000
C515        C  0.36650108  0.30740192  0.52099965     0.85900
O516        O  0.45787301  0.33570209  0.63799333    -0.66200
O517        O  0.31987198  0.36336537  0.62069660    -0.85500
C518        C  0.44089178  0.30559962  0.62861126     0.86800
C519        C  0.47766252  0.33525598  0.54222543     1.08300
H520        H  0.37837793  0.33191870  0.61336296     0.40100
O521        O  0.37767093  0.35117750  0.59205022    -1.08100
O522        O  0.37817286  0.43267986  0.56610616    -0.64800
Ni523      Ni  0.39677225  0.39921860  0.60665648     1.26300
O524        O  0.42776971  0.30441651  0.59733282    -0.65000
O525        O  0.36087425  0.40806839  0.63484950    -0.77300
C526        C  0.43866624  0.43729825  0.64854114     0.86100
O527        O  0.41867523  0.44523825  0.62238791    -0.64500
Ni528      Ni  0.33340258  0.34666582  0.57481825     1.27400
Ni529      Ni  0.41199921  0.34316893  0.56116908     1.26100
H530        H  0.43667294  0.41013799  0.55939706     0.40700
N531        N  0.45615314  0.23937411  0.64925183    -0.01900
C532        C  0.43639445  0.26895537  0.65307535     0.00700
C533        C  0.40445985  0.25291903  0.65802402    -0.22200
C534        C  0.40451078  0.21320285  0.65343436    -0.22400
C535        C  0.43655551  0.20635284  0.64633380     0.00600
H536        H  0.38258966  0.26944049  0.65766079     0.14400
H537        H  0.38279649  0.19334697  0.65116208     0.14500
N538        N  0.47450744  0.24801767  0.76712070    -0.01900
C539        C  0.48019849  0.28498709  0.77862018     0.00700
C540        C  0.50077549  0.30882362  0.75522788    -0.22200
C541        C  0.50772231  0.28667133  0.72816147    -0.22400
C542        C  0.49063230  0.24969664  0.73517527     0.00600
H543        H  0.50805890  0.34014262  0.75628493     0.14400
H544        H  0.52202331  0.29801401  0.70474436     0.14500
N545        N  0.35371502  0.00016497  0.91197462    -0.01900
C546        C  0.33558368  0.46858402  0.89955850     0.00700
C547        C  0.31780010  0.44715550  0.92724605    -0.22200
C548        C  0.31724463  0.47098067  0.95464546    -0.22400
C549        C  0.34182701  0.00460678  0.94513512     0.00600
H550        H  0.30813549  0.41636333  0.92839918     0.14400
H551        H  0.30632098  0.46232403  0.98070072     0.14500
N552        N  0.34893544  0.00195507  0.53545671    -0.01900
C553        C  0.33298754  0.46939033  0.54262554     0.00700
C554        C  0.30159076  0.47437205  0.55375562    -0.22200
C555        C  0.30120519  0.01100422  0.56109292    -0.22400
C556        C  0.32997067  0.02905721  0.54689467     0.00600
H557        H  0.28388072  0.45113473  0.56454131     0.14400
H558        H  0.28381116  0.02439799  0.57670574     0.14500
O559        O  0.40816945  0.17620043  0.90596805    -0.79300
O560        O  0.45117127  0.10385628  0.76856296    -0.64000
O561        O  0.40762753  0.16052548  0.83387376    -1.10600
C562        C  0.37153752  0.02961479  0.88731530     1.07600
O563        O  0.41216786  0.05443812  0.76711679    -0.77200
O564        O  0.35792023  0.05255619  0.80402156    -0.64800
Ni565      Ni  0.43427618  0.19267083  0.86381424     1.34900
C566        C  0.34194000  0.08390385  0.80266245     0.86400
O567        O  0.44546491  0.18367104  0.77405113    -0.77700
O568        O  0.46106146  0.21420660  0.82330078    -0.88000
C569        C  0.43752481  0.07411950  0.75426706     0.85900
O570        O  0.46560536  0.15354216  0.88066722    -0.66200
O571        O  0.39074287  0.01727482  0.86536331    -0.85500
C572        C  0.48146875  0.13463041  0.85993728     0.86800
C573        C  0.45913693  0.21365365  0.78875349     1.08300
H574        H  0.43335358  0.08028319  0.85026395     0.40100
O575        O  0.41578377  0.08729770  0.83304682    -1.08100
O576        O  0.35141645  0.11321305  0.82083214    -0.64800
Ni577      Ni  0.38642493  0.11409545  0.85927110     1.26300
O578        O  0.47269795  0.13285780  0.82688604    -0.65000
O579        O  0.36568424  0.06645538  0.88604382    -0.77300
C580        C  0.37755212  0.16586325  0.90928899     0.86100
O581        O  0.36161708  0.14546992  0.88661829    -0.64500
Ni582      Ni  0.40160963  0.03827330  0.81661258     1.27400
Ni583      Ni  0.43074850  0.13368025  0.80154370     1.26100
H584        H  0.39159226  0.17658003  0.82040285     0.40700
O585        O  0.34876127  0.16207261  0.51813876    -0.79300
O586        O  0.40812231  0.04911629  0.63806659    -0.64000
O587        O  0.37950524  0.14311552  0.58583455    -1.10600
C588        C  0.48406654  0.15956933  0.53574093     1.07600
O589        O  0.46000906  0.07228497  0.64697495    -0.77200
O590        O  0.46032083  0.14899343  0.63237411    -0.64800
Ni591      Ni  0.33582458  0.14885768  0.56797528     1.34900
C592        C  0.44442933  0.17889023  0.62078630     0.86400
O593        O  0.35305036  0.08756828  0.64026865    -0.77700
O594        O  0.32016673  0.13562839  0.61675046    -0.88000
C595        C  0.43385551  0.05266555  0.65804262     0.85900
O596        O  0.32635286  0.09503846  0.55823213    -0.66200
O597        O  0.49356427  0.14525681  0.56739607    -0.85500
C598        C  0.34401882  0.06535602  0.56020645     0.86800
C599        C  0.32695948  0.10663466  0.64048678     1.08300
H600        H  0.43112647  0.08316992  0.56602794     0.40100
O601        O  0.43092636  0.10393231  0.58201283    -1.08100
O602        O  0.43552139  0.18674345  0.58748049    -0.64800
Ni603      Ni  0.41599268  0.15058035  0.55478571     1.26300
O604        O  0.37206681  0.06387340  0.57634972    -0.65000
O605        O  0.45386140  0.15795766  0.52531071    -0.77300
C606        C  0.37286222  0.18513227  0.50594765     0.86100
O607        O  0.39727638  0.19426827  0.52641369    -0.64500
Ni608      Ni  0.47362120  0.10814917  0.60578536     1.27400
Ni609      Ni  0.39240186  0.09557906  0.61164366     1.26100
H610        H  0.38185564  0.16281090  0.60277311     0.40700
N611        N  0.28001938  0.11521985  0.67996456    -0.01900
C612        C  0.25026900  0.09319753  0.67838440     0.00700
C613        C  0.25662561  0.05326194  0.67867639    -0.22200
C614        C  0.28906655  0.05285738  0.66975596    -0.22400
C615        C  0.30154304  0.09175747  0.66707538     0.05400
H616        H  0.23846874  0.02897193  0.67494820     0.14400
H617        H  0.30062547  0.02876353  0.65969298     0.14500
N618        N  0.28558870  0.10814997  0.77918910    -0.01900
C619        C  0.31003155  0.08174664  0.78070787     0.00700
C620        C  0.29598081  0.04317266  0.77984421    -0.22200
C621        C  0.26423489  0.04447400  0.78886622    -0.22400
C622        C  0.25989979  0.08389675  0.79268486     0.00600
H623        H  0.30850303  0.01577265  0.78093624     0.14400
H624        H  0.24684995  0.01899844  0.79407805     0.14500
N625        N  0.23336850  0.97345303  0.90946856    -0.01900
C626        C  0.24599308  0.47052807  0.88256474     0.00700
C627        C  0.27287717  0.48702714  0.86333641    -0.22200
C628        C  0.27221883  0.01237947  0.88001232    -0.22400
C629        C  0.24333647  0.01168507  0.89867716     0.00600
H630        H  0.28394755  0.47432539  0.84141944     0.14400
H631        H  0.28404093  0.03843810  0.86483101     0.14500
N632        N  0.18873005  0.48876940  0.52277678    -0.01900
C633        C  0.18556423  0.48811988  0.48597498     0.00700
C634        C  0.24148634  0.02812064  0.49094783    -0.22200
C635        C  0.24087729  0.04884032  0.51997890    -0.22400
C636        C  0.21591926  0.03153489  0.54246167     0.00600
H637        H  0.24431707  0.04923504  0.95715241     0.14400
H638        H  0.25545870  0.07654595  0.52235248     0.14500
N639        N  0.03858015  0.13317535  0.89072845    -0.01900
C640        C  0.06115640  0.10866071  0.88225818     0.00700
C641        C  0.04531346  0.07302373  0.87367357    -0.22200
C642        C  0.01211002  0.07776589  0.87369691    -0.22400
C643        C  0.00856291  0.11567905  0.88307410     0.00600
H644        H  0.05634804  0.04894020  0.86248466     0.14400
H645        H  0.99303195  0.05804719  0.86288163     0.14500
N646        N  0.04308999  0.17051561  0.50653005    -0.01900
C647        C  0.05023963  0.19147386  0.47358640     0.00700
C648        C  0.02860061  0.22140886  0.46552506    -0.22200
C649        C  0.49663301  0.21320274  0.48617987    -0.22400
C650        C  0.01331295  0.18328560  0.51519138     0.00600
H651        H  0.02458765  0.23582489  0.93972954     0.14400
H652        H  0.47303942  0.22615901  0.48608220     0.14500
O653        O  0.14936641  0.04039294  0.76608556    -0.79300
O654        O  0.20746527  0.14142684  0.89360848    -0.64000
O655        O  0.15893104  0.06825615  0.83546343    -1.10600
C656        C  0.11104958  0.18720757  0.78556112     1.07600
O657        O  0.16145059  0.16966583  0.90246277    -0.77200
O658        O  0.10381900  0.15955418  0.86677046    -0.64800
Ni659      Ni  0.17991761  0.03538128  0.80714114     1.34900
C660        C  0.09259203  0.12354656  0.86559138     0.86400
O661        O  0.20528708  0.06220830  0.89269817    -0.77700
O662        O  0.21175309  0.02574463  0.84635603    -0.88000
C663        C  0.19010569  0.16028898  0.91305271     0.85900
O664        O  0.20320516  0.08181905  0.78557395    -0.66200
O665        O  0.13096493  0.20504645  0.80654708    -0.85500
C666        C  0.22775916  0.09603466  0.80246053     0.86800
C667        C  0.21850786  0.03485623  0.87861060     1.08300
H668        H  0.18037709  0.15655315  0.81520968     0.40100
O669        O  0.16475374  0.14413589  0.83274111    -1.08100
O670        O  0.10548166  0.09992673  0.84702636    -0.64800
Ni671      Ni  0.13532865  0.10870727  0.80856660     1.26300
O672        O  0.22451998  0.10902489  0.83320763    -0.65000
O673        O  0.10972072  0.14973738  0.78383083    -0.77300
C674        C  0.12049385  0.05252909  0.76117114     0.86100
O675        O  0.10799468  0.07189040  0.78395241    -0.64500
Ni676      Ni  0.14630914  0.18578961  0.85395381     1.27400
Ni677      Ni  0.18541784  0.10424844  0.86350652     1.26100
H678        H  0.14485027  0.05095294  0.85178512     0.40700
O679        O  0.09241314  0.07691664  0.65101598    -0.79300
O680        O  0.16164822  0.19244736  0.52952365    -0.64000
O681        O  0.11891093  0.10270163  0.58333043    -1.10600
C682        C  0.22408115  0.10594586  0.65031020     1.07600
O683        O  0.20498386  0.15622356  0.52660730    -0.77200
O684        O  0.22238174  0.09046417  0.57154557    -0.64800
Ni685      Ni  0.07698801  0.10232354  0.60399485     1.34900
C686        C  0.20264258  0.06023106  0.56677938     0.86400
O687        O  0.09832735  0.15990494  0.52614697    -0.77700
O688        O  0.05732744  0.12781233  0.55913112    -0.88000
C689        C  0.18430606  0.18009932  0.51142264     0.85900
O690        O  0.08340382  0.15333210  0.62183037    -0.66200
O691        O  0.23180626  0.13626915  0.62770448    -0.85500
C692        C  0.10001250  0.18631751  0.61334661     0.86800
C693        C  0.06743921  0.15102729  0.53140802     1.08300
H694        H  0.17278432  0.15951544  0.60977905     0.40100
O695        O  0.17352843  0.14100134  0.59173094    -1.08100
O696        O  0.17349474  0.05794516  0.57898786    -0.64800
Ni697      Ni  0.15720588  0.09153225  0.61455297     1.26300
O698        O  0.12210814  0.18983902  0.58912470    -0.65000
O699        O  0.19706298  0.08385289  0.64654090    -0.77300
C700        C  0.11408166  0.05160960  0.66014856     0.86100
O701        O  0.13594980  0.04506386  0.63844437    -0.64500
Ni702      Ni  0.21739846  0.14589303  0.57747485     1.27400
Ni703      Ni  0.13715674  0.15082494  0.55804783     1.26100
H704        H  0.11674312  0.08314225  0.56605129     0.40700
C705        C  0.10326219  0.04938416  0.72565384    -0.14800
C706        C  0.11880229  0.03575497  0.69854176    -0.30000
H707        H  0.08145239  0.06600221  0.71965796     0.14200
H708        H  0.14105095  0.02023658  0.70499037     0.14800
C709        C  0.20108007  0.16733920  0.95047464    -0.14800
C710        C  0.18301250  0.18813443  0.97091140    -0.30000
H711        H  0.22134958  0.15083058  0.96278540     0.14200
H712        H  0.16295987  0.20483409  0.95827224     0.14800
C713        C  0.04441329  0.16735017  0.91058356    -0.14800
C714        C  0.05878834  0.16347155  0.94453400    -0.30000
H715        H  0.02988368  0.19244824  0.90175894     0.14200
H716        H  0.07133922  0.13654150  0.95325525     0.14800
C717        C  0.20644385  0.49392145  0.92378410    -0.14800
C718        C  0.20908198  0.48736375  0.96054542    -0.30000
H719        H  0.18371758  0.50325594  0.91038541     0.14200
H720        H  0.18227259  0.98393822  0.94808022     0.14800
C721        C  0.29353667  0.12988145  0.71379844    -0.14800
C722        C  0.27571644  0.12964112  0.74401655    -0.30000
H723        H  0.32009153  0.12972761  0.71854727     0.14200
H724        H  0.24966763  0.13408965  0.73894679     0.14800
C725        C  0.43120500  0.04245248  0.69746650    -0.14800
C726        C  0.44965905  0.06485752  0.71961208    -0.30000
H727        H  0.40881943  0.02607419  0.70731902     0.14200
H728        H  0.47116912  0.08295828  0.70943930     0.14800
C729        C  0.36213778  0.17314768  0.94319686    -0.14800
C730        C  0.37858410  0.19597383  0.96652688    -0.30000
H731        H  0.34049457  0.15429703  0.95175791     0.14200
H732        H  0.40017135  0.21469741  0.95750190     0.14800
C733        C  0.35663952  0.03039261  0.97219397    -0.14800
C734        C  0.37090043  0.01137483  0.00252142    -0.30000
H735        H  0.34181938  0.05510062  0.97579994     0.14200
H736        H  0.38387898  0.98503887  0.49893335     0.14800
C737        C  0.48287640  0.22280811  0.70662217    -0.14800
C738        C  0.48565051  0.23746003  0.67122475    -0.30000
H739        H  0.46415346  0.19899409  0.71297945     0.14200
H740        H  0.50462159  0.26053075  0.66340038     0.14800
C741        C  0.44640796  0.43524446  0.71523495    -0.14800
C742        C  0.43065684  0.44912178  0.68440033    -0.30000
H743        H  0.46944583  0.42120484  0.71358258     0.14200
H744        H  0.40744435  0.46270116  0.68607075     0.14800
C745        C  0.35530337  0.31609280  0.95476116    -0.14800
C746        C  0.36891638  0.29881599  0.98524344    -0.30000
H747        H  0.33474299  0.33464836  0.95636367     0.14200
H748        H  0.38954419  0.28049596  0.98317397     0.14800
C749        C  0.27698632  0.37850798  0.70508731    -0.14800
C750        C  0.27496465  0.39952976  0.73400361    -0.30000
H751        H  0.27878680  0.34638490  0.70953407     0.14200
H752        H  0.27412300  0.43179579  0.73002276     0.14800
C753        C  0.10351494  0.42785353  0.71733610    -0.14800
C754        C  0.12017554  0.44382496  0.68828566    -0.30000
H755        H  0.08225302  0.40710704  0.71410837     0.14200
H756        H  0.14073710  0.46553674  0.69164014     0.14800
C757        C  0.20500875  0.31796904  0.95624138    -0.14800
C758        C  0.19017996  0.30191783  0.98625522    -0.30000
H759        H  0.22613055  0.33928245  0.95799141     0.14200
H760        H  0.17010034  0.27919376  0.98424285     0.14800
C761        C  0.01964875  0.35782836  0.97272482    -0.14800
C762        C  0.03419895  0.34900898  0.94245070    -0.30000
H763        H  0.00310656  0.38190438  0.97058100     0.14200
H764        H  0.05061510  0.32481722  0.94489038     0.14800
C765        C  0.12263612  0.27156711  0.70927265    -0.14800
C766        C  0.11719422  0.27110949  0.74542626    -0.30000
H767        H  0.14472827  0.28849901  0.69927200     0.14200
H768        H  0.13466041  0.28889830  0.76084624     0.14800
N769        N  0.10915797  0.76341494  0.14124911    -0.01900
C770        C  0.10057453  0.76464338  0.17641858     0.00700
C771        C  0.06979083  0.74610475  0.18252748    -0.22200
C772        C  0.06103079  0.72817553  0.15216434    -0.22400
C773        C  0.08737782  0.73463319  0.12896459     0.00600
H774        H  0.05512203  0.74415264  0.20629029     0.14400
H775        H  0.04005798  0.70688686  0.15029685     0.14500
N776        N  0.09124358  0.75918469  0.25842322    -0.01900
C777        C  0.07314650  0.77272795  0.28392314     0.00700
C778        C  0.05142163  0.74214745  0.29806327    -0.22200
C779        C  0.05931414  0.70828200  0.28380678    -0.22400
C780        C  0.08765105  0.71885523  0.26435514     0.00600
H781        H  0.03671396  0.74228483  0.32187262     0.14400
H782        H  0.05179623  0.67847315  0.29590279     0.14500
N783        N  0.03762659  0.88128580  0.39984559    -0.01900
C784        C  0.06557436  0.89856894  0.38496036     0.00700
C785        C  0.05854447  0.93438910  0.36495544    -0.22200
C786        C  0.02505585  0.93700896  0.36544171    -0.22400
C787        C  0.51190397  0.89369597  0.39450635     0.00600
H788        H  0.07488379  0.95306437  0.34677590     0.14400
H789        H  0.51025329  0.95111718  0.35979961     0.14500
N790        N  0.02428612  0.84546945  0.00458586    -0.01900
C791        C  0.05019384  0.82364801  0.01571375     0.00700
C792        C  0.03814909  0.78781382  0.03389470    -0.22200
C793        C  0.00543715  0.79164780  0.03960235    -0.22400
C794        C  0.49936441  0.80732554  0.02799380     0.00600
H795        H  0.05276372  0.76621405  0.04987975     0.14400
H796        H  0.49707776  0.75323566  0.06718660     0.14500
O797        O  0.15551384  0.81180961  0.41831486    -0.79300
O798        O  0.11690897  0.91163174  0.27890467    -0.64000
O799        O  0.15275068  0.83009446  0.34222254    -1.10600
C800        C  0.23378111  0.93071640  0.36394567     1.07600
O801        O  0.16448011  0.93062948  0.25316479    -0.77200
O802        O  0.22091286  0.89710954  0.27813222    -0.64800
Ni803      Ni  0.12561308  0.80068346  0.37845172     1.34900
C804        C  0.22904079  0.86412315  0.29453824     0.86400
O805        O  0.10041516  0.83446391  0.29326564    -0.77700
O806        O  0.09512187  0.78629152  0.34064002    -0.88000
C807        C  0.13310529  0.92584572  0.25180440     0.85900
O808        O  0.09784471  0.84115662  0.39058739    -0.66200
O809        O  0.22719162  0.94660100  0.33165984    -0.85500
C810        C  0.09182011  0.87470746  0.37349548     0.86800
C811        C  0.08898000  0.80059968  0.30777858     1.08300
H812        H  0.15937686  0.92259762  0.34325808     0.40100
O813        O  0.16829590  0.90456404  0.32816665    -1.08100
O814        O  0.21667742  0.84873040  0.32448829    -0.64800
Ni815      Ni  0.18723740  0.86359042  0.35953439     1.26300
O816        O  0.10530115  0.88790997  0.34399509    -0.65000
O817        O  0.22037628  0.89816698  0.37824458    -0.77300
C818        C  0.18696147  0.81365160  0.41976700     0.86100
O819        O  0.20336757  0.82190220  0.39150427    -0.64500
Ni820      Ni  0.19508938  0.93686426  0.29365824     1.27400
Ni821      Ni  0.13392908  0.87050661  0.31049736     1.26100
H822        H  0.16151105  0.81126035  0.32785315     0.40700
O823        O  0.20482705  0.85979384  0.01708414    -0.79300
O824        O  0.13932037  0.94981383  0.12644131    -0.64000
O825        O  0.18296097  0.87146430  0.08647585    -1.10600
C826        C  0.07637645  0.84313893  0.03700967     1.07600
O827        O  0.10319898  0.90263775  0.14872070    -0.77200
O828        O  0.09174558  0.82826384  0.12411993    -0.64800
Ni829      Ni  0.22200092  0.88315247  0.06069976     1.34900
C830        C  0.11267568  0.80259148  0.12025416     0.86400
O831        O  0.20129670  0.92645158  0.13507661    -0.77700
O832        O  0.24134866  0.90365198  0.10344138    -0.88000
C833        C  0.12194789  0.93406774  0.15206286     0.85900
O834        O  0.21439229  0.93708234  0.03970371    -0.66200
O835        O  0.06641360  0.86404178  0.06078077    -0.85500
C836        C  0.19634038  0.96466276  0.04691840     0.86800
C837        C  0.23116921  0.91930435  0.13065377     1.08300
H838        H  0.12142971  0.91548724  0.05866053     0.40100
O839        O  0.12551681  0.89534766  0.07870120    -1.08100
O840        O  0.13643877  0.81061744  0.09903551    -0.64800
Ni841      Ni  0.14541563  0.85287917  0.06031671     1.26300
O842        O  0.17426274  0.95796159  0.07058578    -0.65000
O843        O  0.10631083  0.83522977  0.03405971    -0.77300
C844        C  0.18755688  0.82652708  0.01683987     0.86100
O845        O  0.16858406  0.81414928  0.04214183    -0.64500
Ni846      Ni  0.08582474  0.88302820  0.10398772     1.27400
Ni847      Ni  0.16289648  0.91266183  0.10633394     1.26100
H848        H  0.18784242  0.85149872  0.10638891     0.40700
N849        N  0.27762838  0.90249283  0.16991965    -0.01900
C850        C  0.25666039  0.93045270  0.15705368     0.00700
C851        C  0.27449715  0.96575423  0.14667013    -0.22200
C852        C  0.30709353  0.95765783  0.14888428    -0.22400
C853        C  0.30806387  0.91739312  0.16026624     0.00600
H854        H  0.26495146  0.99134595  0.13043493     0.14400
H855        H  0.32652174  0.97651440  0.13526102     0.14500
N856        N  0.28475062  0.86883013  0.27074014    -0.01900
C857        C  0.25763497  0.84545098  0.28164836     0.00700
C858        C  0.26748473  0.81048773  0.30088944    -0.22200
C859        C  0.30101678  0.81501392  0.30555389    -0.22400
C860        C  0.31093595  0.85228335  0.28841045     0.00600
H861        H  0.25183817  0.78799935  0.31635143     0.14400
H862        H  0.31556150  0.79606036  0.32446278     0.14500
O863        O  0.40738749  0.93672155  0.25809187    -0.79300
O864        O  0.36511242  0.83202379  0.39612513    -0.64000
O865        O  0.41002420  0.91178771  0.33412707    -1.10600
C866        C  0.47164621  0.80594595  0.31011513     1.07600
O867        O  0.41015861  0.80797731  0.42249106    -0.77200
O868        O  0.46921980  0.84182969  0.39705879    -0.64800
Ni869      Ni  0.38500445  0.94717298  0.30133530     1.34900
C870        C  0.48156776  0.87366528  0.37978295     0.86400
O871        O  0.36268487  0.90938325  0.38510959    -0.77700
O872        O  0.36250831  0.96233927  0.34255201    -0.88000
C873        C  0.37985462  0.81570048  0.42345482     0.85900
O874        O  0.34878798  0.91053814  0.28855699    -0.66200
O875        O  0.46659627  0.79105552  0.34302879    -0.85500
C876        C  0.33985387  0.87561719  0.30276465     0.86800
C877        C  0.35710554  0.94532617  0.37465749     1.08300
H878        H  0.39984296  0.81843273  0.33242381     0.40100
O879        O  0.41331171  0.83580428  0.34688128    -1.08100
O880        O  0.47100310  0.88752076  0.34828912    -0.64800
Ni881      Ni  0.43547387  0.87536241  0.31455447     1.26300
O882        O  0.35354553  0.85946497  0.33130222    -0.65000
O883        O  0.45990217  0.83788028  0.29553453    -0.77300
C884        C  0.43754338  0.93024088  0.25423429     0.86100
O885        O  0.45505468  0.91567746  0.28073352    -0.64500
Ni886      Ni  0.43780038  0.80184212  0.38129274     1.27400
Ni887      Ni  0.38724993  0.87217531  0.36561141     1.26100
H888        H  0.42393875  0.92834187  0.34891779     0.40700
O889        O  0.46087526  0.90764347  0.14952912    -0.79300
O890        O  0.38487190  0.79270183  0.05368158    -0.64000
O891        O  0.43195696  0.88362490  0.08401464    -1.10600
C892        C  0.32982374  0.89490627  0.14014679     1.07600
O893        O  0.34409279  0.82833669  0.03213374    -0.77200
O894        O  0.33089003  0.89986494  0.05536517    -0.64800
Ni895      Ni  0.47347625  0.87931650  0.10958875     1.34900
C896        C  0.35049285  0.93076959  0.05498354     0.86400
O897        O  0.44593090  0.82358833  0.04130358    -0.77700
O898        O  0.48942087  0.85023922  0.07192783    -0.88000
C899        C  0.36545807  0.80324901  0.02793119     0.85900
O900        O  0.46337097  0.83057336  0.14031747    -0.66200
O901        O  0.31730584  0.86637488  0.12241369    -0.85500
C902        C  0.44237765  0.80188860  0.13593977     0.86800
C903        C  0.47675188  0.82938570  0.04730530     1.08300
H904        H  0.37439382  0.83128872  0.11916903     0.40100
O905        O  0.37527258  0.84953993  0.09709135    -1.08100
O906        O  0.37955417  0.93076083  0.06908033    -0.64800
Ni907      Ni  0.39594245  0.89710895  0.11074243     1.26300
O908        O  0.42298694  0.80108288  0.10865446    -0.65000
O909        O  0.35952161  0.90919208  0.13756835    -0.77300
C910        C  0.44012203  0.93386958  0.15185837     0.86100
O911        O  0.41968660  0.94237240  0.12616758    -0.64500
Ni912      Ni  0.33165572  0.84668968  0.07808273     1.27400
Ni913      Ni  0.40994506  0.83678050  0.06867394     1.26100
H914        H  0.43511990  0.90294235  0.06290832     0.40700
N915        N  0.46197011  0.73779922  0.15826673    -0.01900
C916        C  0.44067966  0.76583708  0.16164057     0.00700
C917        C  0.41011701  0.74750592  0.17036611    -0.22200
C918        C  0.41249350  0.70736301  0.16909090    -0.22400
C919        C  0.44429256  0.70275963  0.15929639     0.00600
H920        H  0.38726436  0.76204292  0.17049777     0.14400
H921        H  0.39193550  0.68531857  0.16943445     0.14500
N922        N  0.48586153  0.75040390  0.27435884    -0.01900
C923        C  0.49253367  0.78707497  0.28624489     0.00700
C924        C  0.51255230  0.81107911  0.26237732    -0.22200
C925        C  0.51801014  0.78949112  0.23442806    -0.22400
C926        C  0.50089809  0.75256469  0.24169970     0.00600
H927        H  0.51988804  0.84238136  0.26347674     0.14400
H928        H  0.53155190  0.80101938  0.21048782     0.14500
N929        N  0.35578568  0.50368940  0.41198808    -0.01900
C930        C  0.34467393  0.96726168  0.40290733     0.00700
C931        C  0.32422018  0.94833561  0.42926865    -0.22200
C932        C  0.32172784  0.97449374  0.45434703    -0.22400
C933        C  0.34217776  0.50716394  0.44432370     0.00600
H934        H  0.31276116  0.91833373  0.43041297     0.14400
H935        H  0.30828862  0.96825395  0.47912782     0.14500
N936        N  0.35002425  0.51205373  0.03492230    -0.01900
C937        C  0.33574689  0.96893275  0.04418607     0.00700
C938        C  0.30474521  0.97451631  0.05606661    -0.22200
C939        C  0.30055836  0.52275106  0.05598784    -0.22400
C940        C  0.33116808  0.53967163  0.04608800     0.00600
H941        H  0.28698465  0.95162131  0.06737576     0.14400
H942        H  0.28177473  0.53680269  0.06906562     0.14500
O943        O  0.41128000  0.68227703  0.41003469    -0.79300
O944        O  0.46031721  0.60539628  0.27588539    -0.64000
O945        O  0.41447277  0.66402683  0.33858897    -1.10600
C946        C  0.37624480  0.53301040  0.39027890     1.07600
O947        O  0.41831704  0.55998763  0.27285644    -0.77200
O948        O  0.36404583  0.55509530  0.30964719    -0.64800
Ni949      Ni  0.43862660  0.69828649  0.36871333     1.34900
C950        C  0.34826679  0.58660165  0.30746531     0.86400
O951        O  0.45625049  0.68603197  0.28076552    -0.77700
O952        O  0.46701329  0.71911532  0.32951597    -0.88000
C953        C  0.44454585  0.57767725  0.26028632     0.85900
O954        O  0.47037144  0.66146433  0.38822946    -0.66200
O955        O  0.39721015  0.52068410  0.37028695    -0.85500
C956        C  0.48756963  0.64166102  0.36967992     0.86800
C957        C  0.46853424  0.71678782  0.29539141     1.08300
H958        H  0.43938328  0.58337758  0.35682553     0.40100
O959        O  0.42246273  0.59070896  0.33884062    -1.08100
O960        O  0.35836609  0.61681851  0.32412294    -0.64800
Ni961      Ni  0.39238951  0.61768227  0.36355646     1.26300
O962        O  0.47979300  0.63559156  0.33698445    -0.65000
O963        O  0.37073792  0.56996169  0.38904367    -0.77300
C964        C  0.38123140  0.66918486  0.41333715     0.86100
O965        O  0.36641482  0.64869968  0.39002144    -0.64500
Ni966      Ni  0.40822134  0.54209496  0.32183250     1.27400
Ni967      Ni  0.43939550  0.63656552  0.30802679     1.26100
H968        H  0.39878233  0.67936737  0.32375809     0.40700
O969        O  0.35437079  0.67417571  0.02797759    -0.79300
O970        O  0.40773712  0.55179977  0.14625528    -0.64000
O971        O  0.38205172  0.64856439  0.09597670    -1.10600
C972        C  0.48584788  0.65988550  0.04344606     1.07600
O973        O  0.46185166  0.56746053  0.15108618    -0.77200
O974        O  0.46438632  0.64457300  0.14194116    -0.64800
Ni975      Ni  0.33893982  0.65685810  0.07635846     1.34900
C976        C  0.45026652  0.67630777  0.13225832     0.86400
O977        O  0.35352841  0.59306162  0.14941796    -0.77700
O978        O  0.32017067  0.63948786  0.12330745    -0.88000
C979        C  0.43481374  0.55292086  0.16446374     0.85900
O980        O  0.32960936  0.60499068  0.06112188    -0.66200
O981        O  0.49532910  0.64469933  0.07478368    -0.85500
C982        C  0.34530144  0.57354212  0.06421402     0.86800
C983        C  0.32666628  0.61118943  0.14795162     1.08300
H984        H  0.42969769  0.58600856  0.07261217     0.40100
O985        O  0.43123783  0.60577564  0.08971667    -1.08100
O986        O  0.44133726  0.68687428  0.09941953    -0.64800
Ni987      Ni  0.41878502  0.65495423  0.06507570     1.26300
O988        O  0.37099652  0.56853461  0.08453329    -0.65000
O989        O  0.45556324  0.66071775  0.03423471    -0.77300
C990        C  0.38050525  0.69461857  0.01777185     0.86100
O991        O  0.40330921  0.70213488  0.04040562    -0.64500
Ni992      Ni  0.47498270  0.60576556  0.11162528     1.27400
Ni993      Ni  0.39301027  0.59923023  0.12031409     1.26100
H994        H  0.38503935  0.66776699  0.11332782     0.40700
N995        N  0.27338649  0.61659868  0.17889114    -0.01900
C996        C  0.24636156  0.59186736  0.17101827     0.00700
C997        C  0.25587429  0.55327064  0.17278582    -0.22200
C998        C  0.28977494  0.55566424  0.17418313    -0.22400
C999        C  0.29983502  0.59551383  0.17328011     0.05400
H1000       H  0.24038276  0.52781760  0.16570776     0.14400
H1001       H  0.30515769  0.53259052  0.16847087     0.14500
N1002       N  0.29397985  0.61233089  0.27742283    -0.01900
C1003       C  0.31556760  0.58327471  0.28749040     0.00700
C1004       C  0.29990793  0.54560385  0.28719835    -0.22200
C1005       C  0.26723192  0.55088683  0.28525980    -0.22400
C1006       C  0.26453433  0.59148486  0.28429230     0.00600
H1007       H  0.31065562  0.51717430  0.29372461     0.14400
H1008       H  0.24787563  0.52737274  0.28899866     0.14500
N1009       N  0.23807705  0.48539368  0.40666206    -0.01900
C1010       C  0.25363069  0.95496817  0.38767242     0.00700
C1011       C  0.27776686  0.98108004  0.37158903    -0.22200
C1012       C  0.27780322  0.52091089  0.37645788    -0.22400
C1013       C  0.24958302  0.52316115  0.39566082     0.00600
H1014       H  0.29203416  0.97621036  0.34850363     0.14400
H1015       H  0.29137431  0.54609502  0.36199801     0.14500
N1016       N  0.20098916  0.00388775  0.02587566    -0.01900
C1017       C  0.21306565  0.00544587  0.99165117     0.00700
C1018       C  0.16298774  0.52985147  0.97150784    -0.22200
C1019       C  0.15471996  0.54834484  0.00045790    -0.22400
C1020       C  0.17166800  0.53157927  0.03066332     0.00600
H1021       H  0.15773183  0.52361380  0.44269916     0.14400
H1022       H  0.14168300  0.57543716  0.99858960     0.14500
N1023       N  0.04412680  0.65122719  0.38190668    -0.01900
C1024       C  0.06751559  0.62665718  0.37593432     0.00700
C1025       C  0.05307738  0.58923249  0.37071541    -0.22200
C1026       C  0.01971846  0.59181831  0.37186019    -0.22400
C1027       C  0.01470904  0.63042179  0.37830418     0.00600
H1028       H  0.06505907  0.56431451  0.36218228     0.14400
H1029       H  0.00115262  0.56948287  0.36428573     0.14500
N1030       N  0.03622487  0.67621023  0.00600637    -0.01900
C1031       C  0.04243181  0.69546233  0.97204672     0.00700
C1032       C  0.02116903  0.72591871  0.96403278    -0.22200
C1033       C  0.49974940  0.70844764  0.98994193    -0.22400
C1034       C  0.00750922  0.69062657  0.01549257     0.00600
H1035       H  0.02226612  0.74436974  0.43860118     0.14400
H1036       H  0.47730386  0.72393577  0.98938615     0.14500
O1037       O  0.15171427  0.55236390  0.26507671    -0.79300
O1038       O  0.21543165  0.65848726  0.38609655    -0.64000
O1039       O  0.16611377  0.58144230  0.33345512    -1.10600
C1040       C  0.11597180  0.69722972  0.27913539     1.07600
O1041       O  0.16929772  0.68799802  0.39327739    -0.77200
O1042       O  0.11048712  0.67714298  0.35845162    -0.64800
Ni1043     Ni  0.18453344  0.54729068  0.30475592     1.34900
C1044       C  0.09997241  0.64051069  0.36139197     0.86400
O1045       O  0.21467834  0.57804528  0.38821930    -0.77700
O1046       O  0.21743894  0.53801545  0.34344905    -0.88000
C1047       C  0.19706115  0.67657169  0.40534804     0.85900
O1048       O  0.20779091  0.59274242  0.28093356    -0.66200
O1049       O  0.13788545  0.71700647  0.29629166    -0.85500
C1050       C  0.23368719  0.60661400  0.29567933     0.86800
C1051       C  0.22576296  0.54842821  0.37512077     1.08300
H1052       H  0.18671224  0.66819504  0.30692528     0.40100
O1053       O  0.17199782  0.65746462  0.32604064    -1.08100
O1054       O  0.11503514  0.61448771  0.34834992    -0.64800
Ni1055     Ni  0.14105970  0.62014526  0.30685685     1.26300
O1056       O  0.23226750  0.62147653  0.32601734    -0.65000
O1057       O  0.11390818  0.65931356  0.28159134    -0.77300
C1058       C  0.12229300  0.56352976  0.26356264     0.86100
O1059       O  0.11177730  0.58138579  0.28838506    -0.64500
Ni1060     Ni  0.15378218  0.70128520  0.34447365     1.27400
Ni1061     Ni  0.19382311  0.61911522  0.35800717     1.26100
H1062       H  0.15313616  0.56478043  0.35133791     0.40700
O1063       O  0.08707975  0.59205579  0.15482784    -0.79300
O1064       O  0.15520119  0.69904521  0.02707674    -0.64000
O1065       O  0.11202631  0.61273421  0.08492623    -1.10600
C1066       C  0.22065281  0.60339560  0.14210179     1.07600
O1067       O  0.19480533  0.65885071  0.01853209    -0.77200
O1068       O  0.20415010  0.58586765  0.05332124    -0.64800
Ni1069     Ni  0.07080398  0.61407265  0.10638921     1.34900
C1070       C  0.18040131  0.55938488  0.05885391     0.86400
O1071       O  0.09151695  0.66859165  0.02695384    -0.77700
O1072       O  0.05080910  0.63573826  0.06001870    -0.88000
C1073       C  0.17682398  0.68743090  0.00728590     0.85900
O1074       O  0.07757461  0.66698591  0.11968996    -0.66200
O1075       O  0.23089465  0.62428231  0.11338101    -0.85500
C1076       C  0.09591726  0.69852031  0.11090161     0.86800
C1077       C  0.06078527  0.65847242  0.03179860     1.08300
H1078       H  0.17346511  0.66665692  0.10400521     0.40100
O1079       O  0.16969064  0.64616790  0.08772802    -1.08100
O1080       O  0.15891137  0.56196870  0.08213453    -0.64800
Ni1081     Ni  0.15041208  0.60021903  0.11497889     1.26300
O1082       O  0.11935154  0.69905797  0.08842358    -0.65000
O1083       O  0.19046235  0.58951791  0.14522270    -0.77300
C1084       C  0.10748922  0.56499508  0.16348270     0.86100
O1085       O  0.12775486  0.55667401  0.14111677    -0.64500
Ni1086     Ni  0.21093064  0.64051805  0.06641137     1.27400
Ni1087     Ni  0.13128780  0.65839119  0.05712066     1.26100
H1088       H  0.10828471  0.59274318  0.06818076     0.40700
C1089       C  0.10199284  0.56277277  0.22975732    -0.14800
C1090       C  0.11334105  0.54762602  0.20121401    -0.30000
H1091       H  0.08166916  0.58219015  0.22597324     0.14200
H1092       H  0.13388456  0.52866350  0.20564682     0.14800
C1093       C  0.20484499  0.67888497  0.44440422    -0.14800
C1094       C  0.18362050  0.69429446  0.46578752    -0.30000
H1095       H  0.22444689  0.66116289  0.45664771     0.14200
H1096       H  0.16440932  0.71264444  0.45355700     0.14800
C1097       C  0.04901184  0.68359689  0.40388899    -0.14800
C1098       C  0.06115372  0.67638291  0.43858687    -0.30000
H1099       H  0.03440212  0.70887440  0.39597531     0.14200
H1100       H  0.07413974  0.64945466  0.44579089     0.14800
C1101       C  0.23098478  0.95916352  0.44757417    -0.14800
C1102       C  0.20724818  0.97366089  0.46583520    -0.30000
H1103       H  0.25207486  0.94796468  0.46329106     0.14200
H1104       H  0.23504643  0.46939037  0.47689561     0.14800
C1105       C  0.27231443  0.63265157  0.21426040    -0.14800
C1106       C  0.29798181  0.63107283  0.23970837    -0.30000
H1107       H  0.24793265  0.63521159  0.22437385     0.14200
H1108       H  0.32261519  0.63198815  0.22910811     0.14800
C1109       C  0.43415738  0.54535673  0.20422765    -0.14800
C1110       C  0.45431197  0.56848707  0.22446610    -0.30000
H1111       H  0.41231388  0.52942601  0.21597990     0.14200
H1112       H  0.47521722  0.58619872  0.21235280     0.14800
C1113       C  0.36514781  0.67388948  0.44769792    -0.14800
C1114       C  0.38095466  0.69517709  0.47263008    -0.30000
H1115       H  0.34314700  0.65498382  0.45478742     0.14200
H1116       H  0.40323640  0.71337296  0.46518615     0.14800
C1117       C  0.35568476  0.53228344  0.47229650    -0.14800
C1118       C  0.36898875  0.51264367  0.50269954    -0.30000
H1119       H  0.34057831  0.55680867  0.47563515     0.14200
H1120       H  0.38188726  0.49549473  0.99487650     0.14800
C1121       C  0.49307341  0.72543196  0.21352439    -0.14800
C1122       C  0.49254027  0.74062113  0.17812730    -0.30000
H1123       H  0.47719021  0.69911660  0.22124435     0.14200
H1124       H  0.50866788  0.76641143  0.16918113     0.14800
C1125       C  0.45150934  0.93393008  0.21760525    -0.14800
C1126       C  0.43450640  0.94763382  0.18753347    -0.30000
H1127       H  0.47407935  0.91924189  0.21494629     0.14200
H1128       H  0.41200565  0.96242649  0.19018378     0.14800
C1129       C  0.36187496  0.81143499  0.45762743    -0.14800
C1130       C  0.37414341  0.79271921  0.48802327    -0.30000
H1131       H  0.34076617  0.82922992  0.45881303     0.14200
H1132       H  0.39557258  0.77564778  0.48639997     0.14800
C1133       C  0.27213829  0.88082599  0.20535794    -0.14800
C1134       C  0.28764252  0.89258357  0.23587964    -0.30000
H1135       H  0.25443961  0.85518826  0.20739781     0.14200
H1136       H  0.30553325  0.91802370  0.23339944     0.14800
C1137       C  0.11516995  0.93059339  0.21703334    -0.14800
C1138       C  0.13064367  0.94667978  0.18753847    -0.30000
H1139       H  0.09126884  0.91447854  0.21468175     0.14200
H1140       H  0.15436981  0.96311777  0.19013372     0.14800
C1141       C  0.20409462  0.81483563  0.45497000    -0.14800
C1142       C  0.18811897  0.79988992  0.48459775    -0.30000
H1143       H  0.22511667  0.83626551  0.45672906     0.14200
H1144       H  0.16782791  0.77753446  0.48217534     0.14800
C1145       C  0.02958951  0.87656354  0.46467457    -0.14800
C1146       C  0.03729377  0.85904745  0.43518942    -0.30000
H1147       H  0.02212394  0.90705004  0.46127224     0.14200
H1148       H  0.04456110  0.82849443  0.43808836     0.14800
C1149       C  0.12215007  0.78454839  0.20339012    -0.14800
C1150       C  0.11846998  0.78147114  0.23985265    -0.30000
H1151       H  0.14373477  0.80206729  0.19273732     0.14200
H1152       H  0.13659420  0.79790387  0.25567637     0.14800
N1153       N  0.10886962  0.75661796  0.64266340    -0.01900
C1154       C  0.09834927  0.75917086  0.67718198     0.00700
C1155       C  0.06925738  0.73686816  0.68351611    -0.22200
C1156       C  0.06472656  0.71411924  0.65585511    -0.22400
C1157       C  0.08978210  0.72459091  0.63136840     0.00600
H1158       H  0.05210860  0.73683008  0.70489747     0.14400
H1159       H  0.04569512  0.69015728  0.65516359     0.14500
N1160       N  0.08177329  0.76353807  0.75773558    -0.01900
C1161       C  0.06346809  0.77700973  0.78315239     0.00700
C1162       C  0.04142852  0.74644689  0.79673435    -0.22200
C1163       C  0.05016757  0.71244486  0.78345829    -0.22400
C1164       C  0.07898022  0.72333465  0.76508506     0.00600
H1165       H  0.02654748  0.74651655  0.82042430     0.14400
H1166       H  0.04298145  0.68273744  0.79606840     0.14500
N1167       N  0.03164405  0.87676397  0.90374789    -0.01900
C1168       C  0.05972736  0.89531585  0.89012352     0.00700
C1169       C  0.05311717  0.93256118  0.87281270    -0.22200
C1170       C  0.01966318  0.93499255  0.87296934    -0.22400
C1171       C  0.50748584  0.88790398  0.89661742     0.00600
H1172       H  0.06972727  0.95263063  0.85610561     0.14400
H1173       H  0.50486786  0.94534169  0.86206666     0.14500
N1174       N  0.02778450  0.85444363  0.50012895    -0.01900
C1175       C  0.04987949  0.82709371  0.51085770     0.00700
C1176       C  0.03323709  0.79055948  0.52010897    -0.22200
C1177       C  0.00038165  0.79747985  0.52003189    -0.22400
C1178       C  0.50066213  0.81331840  0.52571741     0.00600
H1179       H  0.04386985  0.76427573  0.53389267     0.14400
H1180       H  0.49869256  0.75845927  0.56398210     0.14500
O1181       O  0.14879201  0.80885816  0.91864559    -0.79300
O1182       O  0.11118474  0.91322233  0.78114977    -0.64000
O1183       O  0.14511370  0.82870440  0.84284769    -1.10600
C1184       C  0.22798706  0.92777634  0.86490511     1.07600
O1185       O  0.15932406  0.92519230  0.75484136    -0.77200
O1186       O  0.21711951  0.89555086  0.78134724    -0.64800
Ni1187     Ni  0.11867728  0.79801825  0.87856687     1.34900
C1188       C  0.22318622  0.86091392  0.79584019     0.86400
O1189       O  0.09100487  0.83715916  0.79606989    -0.77700
O1190       O  0.08824904  0.78494980  0.84008818    -0.88000
C1191       C  0.12788741  0.92356671  0.75333786     0.85900
O1192       O  0.09067011  0.83766129  0.89132297    -0.66200
O1193       O  0.21968790  0.94561396  0.83386005    -0.85500
C1194       C  0.08577468  0.87266320  0.87672559     0.86800
C1195       C  0.08034964  0.80223799  0.80863293     1.08300
H1196       H  0.15489089  0.92043780  0.84554145     0.40100
O1197       O  0.16271869  0.90234369  0.82976350    -1.08100
O1198       O  0.20867647  0.84387350  0.82386308    -0.64800
Ni1199     Ni  0.18112546  0.86033795  0.85984247     1.26300
O1200       O  0.10004927  0.88832299  0.84827230    -0.65000
O1201       O  0.21621871  0.89357697  0.87777345    -0.77300
C1202       C  0.18030646  0.81144513  0.91966955     0.86100
O1203       O  0.19621166  0.81751420  0.89093831    -0.64500
Ni1204     Ni  0.18912079  0.93425299  0.79521301     1.27400
Ni1205     Ni  0.12665283  0.87063663  0.81264516     1.26100
H1206       H  0.15293145  0.81029249  0.82737841     0.40700
O1207       O  0.20542723  0.85450811  0.51844790    -0.79300
O1208       O  0.13875443  0.94238530  0.62828847    -0.64000
O1209       O  0.18198545  0.86391574  0.58742964    -1.10600
C1210       C  0.07569672  0.83904286  0.53656678     1.07600
O1211       O  0.10221960  0.89544350  0.65027290    -0.77200
O1212       O  0.09193176  0.82138742  0.62537407    -0.64800
Ni1213     Ni  0.22174171  0.87586788  0.56283811     1.34900
C1214       C  0.11195185  0.79511031  0.62029936     0.86400
O1215       O  0.20045308  0.91891157  0.63656240    -0.77700
O1216       O  0.24057424  0.89475912  0.60622036    -0.88000
C1217       C  0.12057355  0.92716577  0.65349594     0.85900
O1218       O  0.21519700  0.93031564  0.54265028    -0.66200
O1219       O  0.06581242  0.85693904  0.56244669    -0.85500
C1220       C  0.19656576  0.95769720  0.54894714     0.86800
C1221       C  0.23022519  0.91096171  0.63292038     1.08300
H1222       H  0.12045912  0.90893328  0.56043534     0.40100
O1223       O  0.12470606  0.88833701  0.58003760    -1.08100
O1224       O  0.13468706  0.80244606  0.59752989    -0.64800
Ni1225     Ni  0.14448744  0.84651926  0.56018499     1.26300
O1226       O  0.17360238  0.95062007  0.57165346    -0.65000
O1227       O  0.10548927  0.83112179  0.53272066    -0.77300
C1228       C  0.18861287  0.82125131  0.51673913     0.86100
O1229       O  0.16755625  0.80862802  0.54002101    -0.64500
Ni1230     Ni  0.08516044  0.87571203  0.60553640     1.27400
Ni1231     Ni  0.16212254  0.90524391  0.60766736     1.26100
H1232       H  0.18628338  0.84343353  0.60712745     0.40700
N1233       N  0.27691201  0.89400690  0.67130162    -0.01900
C1234       C  0.25550716  0.92184203  0.65952521     0.00700
C1235       C  0.27272382  0.95779218  0.65006182    -0.22200
C1236       C  0.30546944  0.95043507  0.65175502    -0.22400
C1237       C  0.30708829  0.90994188  0.66184345     0.00600
H1238       H  0.26269462  0.98333633  0.63425405     0.14400
H1239       H  0.32453766  0.97008475  0.63832692     0.14500
N1240       N  0.27914783  0.86455916  0.77268543    -0.01900
C1241       C  0.25171914  0.84174072  0.78331466     0.00700
C1242       C  0.26094471  0.80614360  0.80196786    -0.22200
C1243       C  0.29459919  0.80946672  0.80618622    -0.22400
C1244       C  0.30511038  0.84678178  0.78957781     0.00600
H1245       H  0.24498027  0.78377553  0.81714229     0.14400
H1246       H  0.30894258  0.78965323  0.82450417     0.14500
O1247       O  0.40204626  0.92962179  0.75928958    -0.79300
O1248       O  0.36043628  0.82620085  0.89854582    -0.64000
O1249       O  0.40431787  0.90603794  0.83536160    -1.10600
C1250       C  0.46704645  0.80041873  0.81164844     1.07600
O1251       O  0.40656174  0.80416139  0.92417285    -0.77200
O1252       O  0.46601073  0.83446944  0.89755115    -0.64800
Ni1253     Ni  0.37970426  0.94110598  0.80222995     1.34900
C1254       C  0.47720926  0.86767197  0.88164640     0.86400
O1255       O  0.35634769  0.90392957  0.88572271    -0.77700
O1256       O  0.35787379  0.95729296  0.84342422    -0.88000
C1257       C  0.37622612  0.81141690  0.92595945     0.85900
O1258       O  0.34315372  0.90451452  0.79028165    -0.66200
O1259       O  0.46015139  0.78352083  0.84352741    -0.85500
C1260       C  0.33432992  0.86938130  0.80414032     0.86800
C1261       C  0.35216664  0.94044789  0.87553104     1.08300
H1262       H  0.39534878  0.81321691  0.83368109     0.40100
O1263       O  0.40855955  0.83046809  0.84850484    -1.08100
O1264       O  0.46546335  0.88313674  0.85119708    -0.64800
Ni1265     Ni  0.43086381  0.87028233  0.81652464     1.26300
O1266       O  0.34819047  0.85276191  0.83243887    -0.65000
O1267       O  0.45676192  0.83364430  0.79824300    -0.77300
C1268       C  0.43264622  0.92495359  0.75594149     0.86100
O1269       O  0.45019459  0.91097137  0.78273378    -0.64500
Ni1270     Ni  0.43281056  0.79592834  0.88253784     1.27400
Ni1271     Ni  0.38168216  0.86649068  0.86694256     1.26100
H1272       H  0.41782875  0.92289391  0.85026777     0.40700
O1273       O  0.45999074  0.91012284  0.64992905    -0.79300
O1274       O  0.38909014  0.79614146  0.54780478    -0.64000
O1275       O  0.43200690  0.88709653  0.58317817    -1.10600
C1276       C  0.32927564  0.88905075  0.64069933     1.07600
O1277       O  0.34490575  0.82722558  0.52972143    -0.77200
O1278       O  0.33000910  0.89702438  0.55498739    -0.64800
Ni1279     Ni  0.47222234  0.88001883  0.61102153     1.34900
C1280       C  0.34854036  0.92874796  0.55535908     0.86400
O1281       O  0.44763451  0.83440500  0.53460236    -0.77700
O1282       O  0.48842877  0.84867311  0.57474254    -0.88000
C1283       C  0.36735246  0.80407217  0.52401358     0.85900
O1284       O  0.45602056  0.83373718  0.64175021    -0.66200
O1285       O  0.31755071  0.86113791  0.62180886    -0.85500
C1286       C  0.43878800  0.80389606  0.63219665     0.86800
C1287       C  0.47761572  0.83449384  0.54535005     1.08300
H1288       H  0.37705883  0.82858794  0.61608674     0.40100
O1289       O  0.37664197  0.84820927  0.59502473    -1.08100
O1290       O  0.37728442  0.93016946  0.57028948    -0.64800
Ni1291     Ni  0.39524777  0.89609690  0.61071276     1.26300
O1292       O  0.42745230  0.80225223  0.60029111    -0.65000
O1293       O  0.35859163  0.90436990  0.63857672    -0.77300
C1294       C  0.43765182  0.93409327  0.65317882     0.86100
O1295       O  0.41675489  0.94179613  0.62779922    -0.64500
Ni1296     Ni  0.33262389  0.84368946  0.57666928     1.27400
Ni1297     Ni  0.41158060  0.84101340  0.56445089     1.26100
H1298       H  0.43553410  0.90826446  0.56361774     0.40700
N1299       N  0.45279390  0.73818996  0.65607823    -0.01900
C1300       C  0.43260132  0.76779885  0.65694147     0.00700
C1301       C  0.40066401  0.75163115  0.66091738    -0.22200
C1302       C  0.40168518  0.71118112  0.66004585    -0.22400
C1303       C  0.43416034  0.70408343  0.65498783     0.00600
H1304       H  0.37852188  0.76777811  0.65829317     0.14400
H1305       H  0.38036064  0.69061104  0.65828292     0.14500
N1306       N  0.47994704  0.74616409  0.77436138    -0.01900
C1307       C  0.48773715  0.78191670  0.78725806     0.00700
C1308       C  0.50808439  0.80570384  0.76357872    -0.22200
C1309       C  0.51238548  0.78461270  0.73484632    -0.22400
C1310       C  0.49413351  0.74836258  0.74136173     0.00600
H1311       H  0.51617362  0.83670737  0.76518908     0.14400
H1312       H  0.52514920  0.79662003  0.71053595     0.14500
N1313       N  0.34527213  0.50564764  0.90880687    -0.01900
C1314       C  0.34126977  0.96341926  0.90405563     0.00700
C1315       C  0.32130607  0.94561555  0.93139550    -0.22200
C1316       C  0.32052233  0.97226480  0.95638524    -0.22400
C1317       C  0.33563329  0.50591539  0.94362375     0.00600
H1318       H  0.30903704  0.91600563  0.93324021     0.14400
H1319       H  0.30754476  0.96701954  0.98148306     0.14500
N1320       N  0.34962376  0.50514300  0.53503026    -0.01900
C1321       C  0.33273759  0.96609258  0.54453714     0.00700
C1322       C  0.30253630  0.97107239  0.55876913    -0.22200
C1323       C  0.29966502  0.51441595  0.55555808    -0.22400
C1324       C  0.32989005  0.53215515  0.54529005     0.00600
H1325       H  0.28589649  0.94787225  0.57173452     0.14400
H1326       H  0.28050648  0.52799770  0.56847311     0.14500
O1327       O  0.41592660  0.68595366  0.91413104    -0.79300
O1328       O  0.44528739  0.60680880  0.77064730    -0.64000
O1329       O  0.41039693  0.66272356  0.84318915    -1.10600
C1330       C  0.35898967  0.53874961  0.88476467     1.07600
O1331       O  0.40541787  0.55786907  0.76784689    -0.77200
O1332       O  0.35431043  0.59610657  0.78935223    -0.64800
Ni1333     Ni  0.44081279  0.69486235  0.87039772     1.34900
C1334       C  0.34214902  0.62071311  0.80784246     0.86400
O1335       O  0.44609036  0.68537213  0.78090443    -0.77700
O1336       O  0.46856438  0.71029199  0.82981338    -0.88000
C1337       C  0.43153601  0.57699082  0.75639802     0.85900
O1338       O  0.46805853  0.65220115  0.88677119    -0.66200
O1339       O  0.35157498  0.54066184  0.85099952    -0.85500
C1340       C  0.48145018  0.63133375  0.86557452     0.86800
C1341       C  0.46362575  0.71240489  0.79559329     1.08300
H1342       H  0.42798683  0.57220671  0.84585774     0.40100
O1343       O  0.41074817  0.58788585  0.83441736    -1.08100
O1344       O  0.35079060  0.62310123  0.84136041    -0.64800
Ni1345     Ni  0.39180323  0.61532670  0.86972991     1.26300
O1346       O  0.47049827  0.62778160  0.83311637    -0.65000
O1347       O  0.37627059  0.56677175  0.89745964    -0.77300
C1348       C  0.38783495  0.66928793  0.92234702     0.86100
O1349       O  0.37303461  0.64365696  0.90417085    -0.64500
Ni1350     Ni  0.37986171  0.55313120  0.81014252     1.27400
Ni1351     Ni  0.42880698  0.63570949  0.80696208     1.26100
H1352       H  0.39348156  0.67924741  0.83218745     0.40700
O1353       O  0.34983952  0.66514751  0.52303300    -0.79300
O1354       O  0.40555297  0.54737566  0.64179171    -0.64000
O1355       O  0.37848228  0.64312171  0.59138239    -1.10600
C1356       C  0.48469262  0.65999879  0.54470071     1.07600
O1357       O  0.45785411  0.56842325  0.65187374    -0.77200
O1358       O  0.45732348  0.64587402  0.64100445    -0.64800
Ni1359     Ni  0.33514233  0.64983385  0.57226553     1.34900
C1360       C  0.44248726  0.67667429  0.62940463     0.86400
O1361       O  0.35034695  0.58596063  0.64389614    -0.77700
O1362       O  0.31748023  0.63393559  0.62026427    -0.88000
C1363       C  0.43100999  0.55017962  0.66235440     0.85900
O1364       O  0.32593698  0.59702619  0.55977605    -0.66200
O1365       O  0.49289807  0.64579152  0.57679356    -0.85500
C1366       C  0.34333481  0.56713232  0.56155415     0.86800
C1367       C  0.32380212  0.60434665  0.64373068     1.08300
H1368       H  0.43033198  0.58329645  0.57125372     0.40100
O1369       O  0.42982998  0.60346704  0.58780439    -1.08100
O1370       O  0.43512567  0.68569331  0.59579016    -0.64800
Ni1371     Ni  0.41603524  0.65105397  0.56144837     1.26300
O1372       O  0.37059342  0.56437217  0.57934949    -0.65000
O1373       O  0.45478752  0.65875372  0.53312106    -0.77300
C1374       C  0.37516342  0.68676109  0.51188688     0.86100
O1375       O  0.39848942  0.69573665  0.53375541    -0.64500
Ni1376     Ni  0.47198140  0.60676901  0.61292484     1.27400
Ni1377     Ni  0.39044317  0.59459018  0.61621526     1.26100
H1378       H  0.38047503  0.66170471  0.60850717     0.40700
N1379       N  0.27069732  0.60752921  0.67530450    -0.01900
C1380       C  0.24394498  0.58196548  0.66964494     0.00700
C1381       C  0.25443441  0.54373905  0.67192043    -0.22200
C1382       C  0.28838456  0.54744778  0.67145112    -0.22400
C1383       C  0.29745639  0.58756939  0.66928967     0.05400
H1384       H  0.23924119  0.51745676  0.66635143     0.14400
H1385       H  0.30431787  0.52483704  0.66615339     0.14500
N1386       N  0.28909911  0.63599859  0.77194605    -0.01900
C1387       C  0.31651049  0.64743753  0.79152186     0.00700
C1388       C  0.31072173  0.68141525  0.80732378    -0.22200
C1389       C  0.27840171  0.68887881  0.79981523    -0.22400
C1390       C  0.26463773  0.65819845  0.78091173     0.00600
H1391       H  0.32665486  0.69566929  0.82683505     0.14400
H1392       H  0.26501318  0.70899187  0.81375304     0.14500
N1393       N  0.23559972  0.49820389  0.90250660    -0.01900
C1394       C  0.24912709  0.95094804  0.88850066     0.00700
C1395       C  0.27447717  0.97424581  0.87145536    -0.22200
C1396       C  0.27634561  0.52670345  0.86874870    -0.22400
C1397       C  0.24940502  0.53391131  0.88816492     0.00600
H1398       H  0.28809092  0.96668864  0.84881727     0.14400
H1399       H  0.28971761  0.54894156  0.85053237     0.14500
N1400       N  0.20202264  0.99730459  0.52847608    -0.01900
C1401       C  0.21725504  0.99796062  0.49589987     0.00700
C1402       C  0.16314836  0.51480200  0.47121193    -0.22200
C1403       C  0.15351902  0.53410721  0.49918250    -0.22400
C1404       C  0.17038363  0.51931166  0.53032252     0.00600
H1405       H  0.15688913  0.54008156  0.94347188     0.14400
H1406       H  0.13981432  0.56071330  0.49594212     0.14500
N1407       N  0.03703759  0.64826537  0.88442286    -0.01900
C1408       C  0.06099589  0.62505953  0.87627132     0.00700
C1409       C  0.04675226  0.58940899  0.86603611    -0.22200
C1410       C  0.01330017  0.59223107  0.86558399    -0.22400
C1411       C  0.00770924  0.62917642  0.87615364     0.00600
H1412       H  0.05908772  0.56648351  0.85458886     0.14400
H1413       H  0.99526749  0.57184481  0.85391342     0.14500
N1414       N  0.03837932  0.66934731  0.50045009    -0.01900
C1415       C  0.04620945  0.69319550  0.46919553     0.00700
C1416       C  0.02320442  0.72160687  0.46156906    -0.22200
C1417       C  0.49966105  0.71109787  0.49390699    -0.22400
C1418       C  0.00696984  0.67823371  0.50743553     0.00600
H1419       H  0.01915835  0.74584920  0.93917275     0.14400
H1420       H  0.47656796  0.72532918  0.49276097     0.14500
O1421       O  0.15711360  0.57477380  0.75618655    -0.79300
O1422       O  0.20745403  0.66670785  0.88882228    -0.64000
O1423       O  0.16640143  0.59281493  0.82840227    -1.10600
C1424       C  0.10718451  0.70351162  0.78204975     1.07600
O1425       O  0.15985435  0.69255554  0.89728222    -0.77200
O1426       O  0.10200917  0.67807931  0.86164480    -0.64800
Ni1427     Ni  0.18991655  0.56731761  0.79586137     1.34900
C1428       C  0.09343250  0.64101150  0.86231969     0.86400
O1429       O  0.21349095  0.58782631  0.88328620    -0.77700
O1430       O  0.22242745  0.55597347  0.83406232    -0.88000
C1431       C  0.18862347  0.68360102  0.90823619     0.85900
O1432       O  0.21678979  0.61328620  0.77589661    -0.66200
O1433       O  0.12675603  0.72412673  0.80132692    -0.85500
C1434       C  0.23316954  0.63800697  0.79426762     0.86800
C1435       C  0.22744792  0.56176348  0.86768973     1.08300
H1436       H  0.17829636  0.68130599  0.81001843     0.40100
O1437       O  0.16437468  0.66735715  0.82858027    -1.08100
O1438       O  0.11010289  0.61731115  0.84733541    -0.64800
Ni1439     Ni  0.13731001  0.62923987  0.80595277     1.26300
O1440       O  0.22566159  0.64343143  0.82645842    -0.65000
O1441       O  0.10718386  0.66587368  0.78319087    -0.77300
C1442       C  0.12583023  0.57704964  0.75719860     0.86100
O1443       O  0.11275003  0.58918744  0.78385942    -0.64500
Ni1444     Ni  0.14344901  0.70726870  0.84903483     1.27400
Ni1445     Ni  0.18893873  0.62904816  0.85751591     1.26100
H1446       H  0.15459440  0.57225521  0.84412251     0.40700
O1447       O  0.08659362  0.59019460  0.64998166    -0.79300
O1448       O  0.15893791  0.69188829  0.52389841    -0.64000
O1449       O  0.11268129  0.60688404  0.58069722    -1.10600
C1450       C  0.21901843  0.59242462  0.63991268     1.07600
O1451       O  0.19625228  0.64828392  0.51577990    -0.77200
O1452       O  0.20286509  0.57475340  0.55062698    -0.64800
Ni1453     Ni  0.07108303  0.60845937  0.60057629     1.34900
C1454       C  0.17882411  0.54894288  0.55694666     0.86400
O1455       O  0.09334400  0.66530418  0.52439853    -0.77700
O1456       O  0.05271496  0.62698184  0.55304816    -0.88000
C1457       C  0.18041949  0.67877294  0.50450333     0.85900
O1458       O  0.07693970  0.66211310  0.61156696    -0.66200
O1459       O  0.23026005  0.61151630  0.61076974    -0.85500
C1460       C  0.09773897  0.69212854  0.60793550     0.86800
C1461       C  0.06278027  0.65242485  0.52686859     1.08300
H1462       H  0.17575653  0.65754661  0.60092712     0.40100
O1463       O  0.17095298  0.63733275  0.58456563    -1.08100
O1464       O  0.15748241  0.55284720  0.58006390    -0.64800
Ni1465     Ni  0.14974146  0.59263995  0.61175933     1.26300
O1466       O  0.12296644  0.69244265  0.58774734    -0.65000
O1467       O  0.18849120  0.58045948  0.64319169    -0.77300
C1468       C  0.10647077  0.56308720  0.66025084     0.86100
O1469       O  0.12495659  0.55101774  0.63799065    -0.64500
Ni1470     Ni  0.21157483  0.62903515  0.56363274     1.27400
Ni1471     Ni  0.13316406  0.65246537  0.55409463     1.26100
H1472       H  0.10918774  0.58735844  0.56347335     0.40700
C1473       C  0.10486413  0.57214911  0.72471931    -0.14800
C1474       C  0.11476234  0.55188010  0.69871356    -0.30000
H1475       H  0.08405442  0.59070375  0.71974822     0.14200
H1476       H  0.13534654  0.53312286  0.70465174     0.14800
C1477       C  0.19819548  0.68780938  0.94630245    -0.14800
C1478       C  0.17735766  0.70211521  0.96844494    -0.30000
H1479       H  0.21937107  0.67227326  0.95757262     0.14200
H1480       H  0.15653077  0.71828451  0.95711881     0.14800
C1481       C  0.04071693  0.68014874  0.90729784    -0.14800
C1482       C  0.05358326  0.67381923  0.94191042    -0.30000
H1483       H  0.02598035  0.70526694  0.89929596     0.14200
H1484       H  0.06612135  0.64668097  0.94971134     0.14800
C1485       C  0.22881174  0.96222335  0.94778378    -0.14800
C1486       C  0.20432776  0.97721327  0.96433970    -0.30000
H1487       H  0.25067181  0.95489066  0.96412510     0.14200
H1488       H  0.23231795  0.47820432  0.97294530     0.14800
C1489       C  0.27092538  0.62754833  0.70836565    -0.14800
C1490       C  0.28896287  0.61562781  0.73927473    -0.30000
H1491       H  0.25457165  0.65150641  0.70893490     0.14200
H1492       H  0.30543845  0.59179347  0.73888675     0.14800
C1493       C  0.42740242  0.54169539  0.70172343    -0.14800
C1494       C  0.44518319  0.56546325  0.72337764    -0.30000
H1495       H  0.40475652  0.52568311  0.71127618     0.14200
H1496       H  0.46698935  0.58309169  0.71339047     0.14800
C1497       C  0.37256481  0.67750181  0.95577603    -0.14800
C1498       C  0.38820166  0.70059643  0.97906460    -0.30000
H1499       H  0.35024553  0.65961170  0.96372665     0.14200
H1500       H  0.41112290  0.71734972  0.97148521     0.14800
C1501       C  0.34786953  0.53372347  0.97014131    -0.14800
C1502       C  0.36522899  0.51804646  0.99976695    -0.30000
H1503       H  0.33091885  0.55627080  0.97384934     0.14200
H1504       H  0.38457954  0.48886480  0.49818614     0.14800
C1505       C  0.48265518  0.72385693  0.71209962    -0.14800
C1506       C  0.48264156  0.74032161  0.67708281    -0.30000
H1507       H  0.46533792  0.69871131  0.71934444     0.14200
H1508       H  0.49892447  0.76621262  0.66900559     0.14800
C1509       C  0.44737131  0.93047582  0.71958209    -0.14800
C1510       C  0.43090698  0.94544146  0.68952959    -0.30000
H1511       H  0.47038542  0.91672936  0.71692201     0.14200
H1512       H  0.40784120  0.95896025  0.69233701     0.14800
C1513       C  0.35957761  0.80807916  0.96103780    -0.14800
C1514       C  0.37446325  0.79379298  0.99189109    -0.30000
H1515       H  0.33649110  0.82221344  0.96197821     0.14200
H1516       H  0.39772741  0.78023493  0.99058908     0.14800
C1517       C  0.27220011  0.87191875  0.70660486    -0.14800
C1518       C  0.28197827  0.88780515  0.73767002    -0.30000
H1519       H  0.25996728  0.84220792  0.70806296     0.14200
H1520       H  0.29492917  0.91712846  0.73606014     0.14800
C1521       C  0.11073779  0.92676474  0.71796827    -0.14800
C1522       C  0.12741815  0.94139690  0.68872729    -0.30000
H1523       H  0.08687670  0.91067398  0.71529753     0.14200
H1524       H  0.15100991  0.95796083  0.69189226     0.14800
C1525       C  0.19808017  0.81699481  0.95393545    -0.14800
C1526       C  0.18325675  0.80490391  0.98487013    -0.30000
H1527       H  0.21973494  0.83772901  0.95341170     0.14200
H1528       H  0.16218875  0.78326014  0.98471721     0.14800
C1529       C  0.02095396  0.86710845  0.96880400    -0.14800
C1530       C  0.03170425  0.85299834  0.93872936    -0.30000
H1531       H  0.00844109  0.89470077  0.96601157     0.14200
H1532       H  0.04423739  0.82542873  0.94166926     0.14800
C1533       C  0.11558297  0.78494473  0.70324998    -0.14800
C1534       C  0.10891791  0.78609836  0.73886376    -0.30000
H1535       H  0.13651684  0.80388666  0.69277126     0.14200
H1536       H  0.12435906  0.80697350  0.75334540     0.14800
N1537       N  0.60849975  0.25636850  0.14083345    -0.01900
C1538       C  0.59911051  0.25808795  0.17569390     0.00700
C1539       C  0.56860782  0.23880992  0.18133750    -0.22200
C1540       C  0.56063783  0.22032748  0.15113634    -0.22400
C1541       C  0.58712431  0.22737806  0.12823498     0.00600
H1542       H  0.55342739  0.23716921  0.20454946     0.14400
H1543       H  0.53993120  0.19870774  0.14902635     0.14500
N1544       N  0.58759076  0.25677994  0.25800507    -0.01900
C1545       C  0.57139545  0.26905511  0.28575782     0.00700
C1546       C  0.55028596  0.23816260  0.30047990    -0.22200
C1547       C  0.55642360  0.20519042  0.28383270    -0.22400
C1548       C  0.58361898  0.21637615  0.26264090     0.00600
H1549       H  0.53685162  0.23746951  0.32531582     0.14400
H1550       H  0.54898991  0.17501491  0.29503190     0.14500
N1551       N  0.53579255  0.37223835  0.40604004    -0.01900
C1552       C  0.56338566  0.39113471  0.39130056     0.00700
C1553       C  0.55598471  0.42823028  0.37434903    -0.22200
C1554       C  0.52252071  0.43013136  0.37564647    -0.22400
C1555       C  0.01201960  0.39500118  0.39550902     0.00600
H1556       H  0.57200658  0.44857242  0.35716242     0.14400
H1557       H  0.01099316  0.45250651  0.36087391     0.14500
N1558       N  0.52363193  0.33454203  0.00458056    -0.01900
C1559       C  0.55007518  0.31356653  0.01570679     0.00700
C1560       C  0.53864546  0.27760803  0.03423287    -0.22200
C1561       C  0.50565788  0.28030737  0.03956740    -0.22400
C1562       C  0.99827920  0.31504084  0.02543597     0.00600
H1563       H  0.55365787  0.25659564  0.05040117     0.14400
H1564       H  0.99441136  0.25907912  0.06208924     0.14500
O1565       O  0.65624897  0.30792298  0.41901111    -0.79300
O1566       O  0.61198973  0.40879218  0.27921004    -0.64000
O1567       O  0.65136049  0.32978279  0.34342061    -1.10600
C1568       C  0.72854676  0.43583249  0.36413896     1.07600
O1569       O  0.65945443  0.42927496  0.25390014    -0.77200
O1570       O  0.71823108  0.40273966  0.28021660    -0.64800
Ni1571     Ni  0.62591738  0.29738464  0.37932685     1.34900
C1572       C  0.72683584  0.36944338  0.29555272     0.86400
O1573       O  0.59858981  0.33104744  0.29452029    -0.77700
O1574       O  0.59484251  0.28290043  0.34193393    -0.88000
C1575       C  0.62825254  0.42267575  0.25182949     0.85900
O1576       O  0.59792096  0.33631585  0.39351095    -0.66200
O1577       O  0.71921574  0.45235953  0.33300544    -0.85500
C1578       C  0.58955782  0.36919981  0.37695607     0.86800
C1579       C  0.58797372  0.29694939  0.30918408     1.08300
H1580       H  0.65364316  0.42198713  0.34479536     0.40100
O1581       O  0.66345818  0.40490916  0.32947443    -1.08100
O1582       O  0.71410806  0.35229147  0.32465154    -0.64800
Ni1583     Ni  0.68473136  0.36536427  0.36045204     1.26300
O1584       O  0.60081548  0.38336759  0.34630959    -0.65000
O1585       O  0.71730959  0.40198459  0.37837760    -0.77300
C1586       C  0.68764849  0.31253019  0.41983804     0.86100
O1587       O  0.70334342  0.32462942  0.39167309    -0.64500
Ni1588     Ni  0.68860334  0.43928113  0.29481326     1.27400
Ni1589     Ni  0.63047871  0.36887799  0.31180060     1.26100
H1590       H  0.66095924  0.31191332  0.32867622     0.40700
O1591       O  0.70744598  0.35042514  0.01738906    -0.79300
O1592       O  0.63947275  0.44150050  0.12601186    -0.64000
O1593       O  0.68380750  0.36337029  0.08553409    -1.10600
C1594       C  0.57659790  0.33408750  0.03603150     1.07600
O1595       O  0.60213908  0.39531254  0.14731923    -0.77200
O1596       O  0.59162101  0.32095874  0.12260984    -0.64800
Ni1597     Ni  0.72319473  0.37665195  0.05978942     1.34900
C1598       C  0.61260485  0.29515038  0.11943027     0.86400
O1599       O  0.70090316  0.41882287  0.13445147    -0.77700
O1600       O  0.74185428  0.40104857  0.10120601    -0.88000
C1601       C  0.62085538  0.42665412  0.15101450     0.85900
O1602       O  0.71344237  0.42858149  0.03539931    -0.66200
O1603       O  0.56676971  0.35613459  0.05890709    -0.85500
C1604       C  0.69469113  0.45498077  0.04324891     0.86800
C1605       C  0.73112911  0.41554992  0.12878140     1.08300
H1606       H  0.62219151  0.40685595  0.05759019     0.40100
O1607       O  0.62599061  0.38672628  0.07775401    -1.08100
O1608       O  0.63675712  0.30262584  0.09856140    -0.64800
Ni1609     Ni  0.64601145  0.34429325  0.05932906     1.26300
O1610       O  0.67462226  0.44802483  0.06913563    -0.65000
O1611       O  0.60660324  0.32598731  0.03341389    -0.77300
C1612       C  0.68963435  0.31769114  0.01642574     0.86100
O1613       O  0.66940472  0.30561341  0.04076019    -0.64500
Ni1614     Ni  0.58576374  0.37541851  0.10220123     1.27400
Ni1615     Ni  0.66313938  0.40407679  0.10569693     1.26100
H1616       H  0.68897455  0.34338667  0.10533434     0.40700
N1617       N  0.77752871  0.40379980  0.16972867    -0.01900
C1618       C  0.75597270  0.42982927  0.15451109     0.00700
C1619       C  0.77279597  0.46560035  0.14313007    -0.22200
C1620       C  0.80564030  0.45967211  0.14786504    -0.22400
C1621       C  0.80774739  0.41983730  0.16056152     0.00600
H1622       H  0.76304931  0.48961637  0.12495299     0.14400
H1623       H  0.82484795  0.47893958  0.13426534     0.14500
N1624       N  0.78286421  0.37558299  0.27160982    -0.01900
C1625       C  0.75583230  0.35181499  0.28223470     0.00700
C1626       C  0.76570820  0.31614221  0.30007063    -0.22200
C1627       C  0.79927853  0.32023057  0.30414870    -0.22400
C1628       C  0.80913160  0.35804987  0.28819482     0.00600
H1629       H  0.75014755  0.29302774  0.31488166     0.14400
H1630       H  0.81401819  0.30035889  0.32193502     0.14500
O1631       O  0.90630542  0.43867214  0.25820532    -0.79300
O1632       O  0.86352065  0.33578626  0.39619422    -0.64000
O1633       O  0.90913842  0.41515728  0.33431649    -1.10600
C1634       C  0.97140594  0.30958919  0.31184003     1.07600
O1635       O  0.90883431  0.31295838  0.42306855    -0.77200
O1636       O  0.96854801  0.34421935  0.39781607    -0.64800
Ni1637     Ni  0.88504995  0.45105056  0.30139724     1.34900
C1638       C  0.98110900  0.37607904  0.38082209     0.86400
O1639       O  0.86012791  0.41323461  0.38341531    -0.77700
O1640       O  0.86428485  0.46776499  0.34283083    -0.88000
C1641       C  0.87859840  0.32096731  0.42406006     0.85900
O1642       O  0.84724933  0.41593260  0.28979988    -0.66200
O1643       O  0.96499382  0.29377166  0.34418915    -0.85500
C1644       C  0.83856053  0.38038412  0.30268934     0.86800
C1645       C  0.85659954  0.45001504  0.37397399     1.08300
H1646       H  0.89931451  0.32204669  0.33283551     0.40100
O1647       O  0.91247712  0.33946036  0.34750603    -1.08100
O1648       O  0.97024441  0.39085881  0.34964989    -0.64800
Ni1649     Ni  0.93495467  0.37884530  0.31531883     1.26300
O1650       O  0.85294218  0.36272109  0.33007574    -0.65000
O1651       O  0.95997440  0.34159797  0.29706099    -0.77300
C1652       C  0.93664337  0.43309356  0.25438122     0.86100
O1653       O  0.95438169  0.41908748  0.28104250    -0.64500
Ni1654     Ni  0.93626176  0.30525362  0.38219467     1.27400
Ni1655     Ni  0.88572663  0.37583591  0.36533788     1.26100
H1656       H  0.92290991  0.43148262  0.34944948     0.40700
O1657       O  0.96037197  0.41312755  0.14888768    -0.79300
O1658       O  0.88475074  0.29932876  0.05102822    -0.64000
O1659       O  0.93144400  0.38968158  0.08305380    -1.10600
C1660       C  0.82958673  0.39824898  0.13988695     1.07600
O1661       O  0.84380938  0.33484896  0.03011252    -0.77200
O1662       O  0.83029227  0.40527327  0.05497600    -0.64800
Ni1663     Ni  0.97273349  0.38477525  0.10887578     1.34900
C1664       C  0.84998624  0.43608414  0.05452649     0.86400
O1665       O  0.94518121  0.33159277  0.03854596    -0.77700
O1666       O  0.98847072  0.35558399  0.07119843    -0.88000
C1667       C  0.86529973  0.31010819  0.02543895     0.85900
O1668       O  0.96160225  0.33626105  0.13937198    -0.66200
O1669       O  0.81720574  0.37004761  0.12166988    -0.85500
C1670       C  0.94138811  0.30718089  0.13384462     0.86800
C1671       C  0.97587853  0.33636000  0.04541398     1.08300
H1672       H  0.87437826  0.33593069  0.11755373     0.40100
O1673       O  0.87503071  0.35464267  0.09579992    -1.08100
O1674       O  0.87895930  0.43604399  0.06877783    -0.64800
Ni1675     Ni  0.89542792  0.40211007  0.11010321     1.26300
O1676       O  0.92302424  0.30630713  0.10573811    -0.65000
O1677       O  0.85905393  0.41317306  0.13721806    -0.77300
C1678       C  0.93931761  0.43885144  0.15169259     0.86100
O1679       O  0.91873007  0.44737989  0.12615854    -0.64500
Ni1680     Ni  0.83142419  0.35178064  0.07671626     1.27400
Ni1681     Ni  0.90952468  0.34319442  0.06676969     1.26100
H1682       H  0.93467412  0.40949401  0.06232691     0.40700
N1683       N  0.96242057  0.24410020  0.15777332    -0.01900
C1684       C  0.93967776  0.27088874  0.15922125     0.00700
C1685       C  0.90955338  0.25126291  0.16754712    -0.22200
C1686       C  0.91396737  0.21120862  0.16889291    -0.22400
C1687       C  0.94623983  0.20799948  0.15976656     0.00600
H1688       H  0.88601134  0.26442279  0.16659896     0.14400
H1689       H  0.89443434  0.18779339  0.17053863     0.14500
N1690       N  0.98596509  0.25577593  0.27532587    -0.01900
C1691       C  0.99322712  0.29136685  0.28871698     0.00700
C1692       C  0.01426461  0.31559565  0.26610941    -0.22200
C1693       C  0.01959078  0.29507948  0.23731167    -0.22400
C1694       C  0.00141772  0.25869794  0.24300019     0.00600
H1695       H  0.02215991  0.34652835  0.26841973     0.14400
H1696       H  0.03368452  0.30693101  0.21385055     0.14500
N1697       N  0.85669082  0.01040167  0.41408772    -0.01900
C1698       C  0.84374680  0.47161725  0.40238560     0.00700
C1699       C  0.82532180  0.45095492  0.42982086    -0.22200
C1700       C  0.82515962  0.47493134  0.45695051    -0.22400
C1701       C  0.84349001  0.01514562  0.44638768     0.00600
H1702       H  0.81438331  0.42071743  0.43068321     0.14400
H1703       H  0.81307154  0.46698521  0.48235263     0.14500
N1704       N  0.85000221  0.01843119  0.03592495    -0.01900
C1705       C  0.83567809  0.47428777  0.04304603     0.00700
C1706       C  0.80427368  0.47985488  0.05375080    -0.22200
C1707       C  0.80109202  0.03044382  0.05734113    -0.22400
C1708       C  0.83178887  0.04669981  0.04689036     0.00600
H1709       H  0.78583466  0.45689515  0.06343256     0.14400
H1710       H  0.78276577  0.04499453  0.07067689     0.14500
O1711       O  0.90937272  0.19269308  0.40774596    -0.79300
O1712       O  0.95823697  0.11300959  0.27527784    -0.64000
O1713       O  0.91248459  0.17132417  0.33786796    -1.10600
C1714       C  0.87603370  0.03963515  0.39087373     1.07600
O1715       O  0.91637415  0.06754973  0.27233356    -0.77200
O1716       O  0.86277918  0.06122826  0.30999591    -0.64800
Ni1717     Ni  0.93837490  0.20448786  0.36776272     1.34900
C1718       C  0.84608062  0.09181882  0.30870000     0.86400
O1719       O  0.95368407  0.19325744  0.27991255    -0.77700
O1720       O  0.96923956  0.22154689  0.33000614    -0.88000
C1721       C  0.94270710  0.08507602  0.25992667     0.85900
O1722       O  0.96599142  0.16356390  0.38869422    -0.66200
O1723       O  0.89615621  0.02717387  0.36987080    -0.85500
C1724       C  0.98346485  0.14436483  0.36991729     0.86800
C1725       C  0.96831062  0.22199209  0.29547024     1.08300
H1726       H  0.93750132  0.09034939  0.35607351     0.40100
O1727       O  0.92059653  0.09783134  0.33818242    -1.08100
O1728       O  0.85593111  0.12259057  0.32482455    -0.64800
Ni1729     Ni  0.89092807  0.12466152  0.36336048     1.26300
O1730       O  0.97765300  0.14242687  0.33608480    -0.65000
O1731       O  0.87039280  0.07662083  0.38970658    -0.77300
C1732       C  0.87986945  0.17817491  0.41208418     0.86100
O1733       O  0.86524588  0.15564640  0.39022388    -0.64500
Ni1734     Ni  0.90692993  0.04905819  0.32136729     1.27400
Ni1735     Ni  0.93716978  0.14378390  0.30722467     1.26100
H1736       H  0.89670233  0.18691715  0.32345509     0.40700
O1737       O  0.85669179  0.18101203  0.03014240    -0.79300
O1738       O  0.90982117  0.05584714  0.14530854    -0.64000
O1739       O  0.88495466  0.15381149  0.09721114    -1.10600
C1740       C  0.98913326  0.16376953  0.04450491     1.07600
O1741       O  0.96337509  0.07275368  0.15266974    -0.77200
O1742       O  0.96735269  0.14987229  0.14274648    -0.64800
Ni1743     Ni  0.84169611  0.16314240  0.07865412     1.34900
C1744       C  0.95319026  0.18159430  0.13294102     0.86400
O1745       O  0.85594012  0.09703018  0.14969181    -0.77700
O1746       O  0.82325928  0.14512671  0.12580031    -0.88000
C1747       C  0.93603004  0.05774797  0.16485786     0.85900
O1748       O  0.83136342  0.11172224  0.06292532    -0.66200
O1749       O  0.99844104  0.14763938  0.07557452    -0.85500
C1750       C  0.84683912  0.08016333  0.06488900     0.86800
C1751       C  0.82928976  0.11542051  0.14916141     1.08300
H1752       H  0.93238431  0.09127823  0.07310400     0.40100
O1753       O  0.93387016  0.11082085  0.09039959    -1.08100
O1754       O  0.94454094  0.19205946  0.10007501    -0.64800
Ni1755     Ni  0.92171073  0.16025347  0.06605495     1.26300
O1756       O  0.87312200  0.07464163  0.08410599    -0.65000
O1757       O  0.95881781  0.16602282  0.03542904    -0.77300
C1758       C  0.88292477  0.20108270  0.01959986     0.86100
O1759       O  0.90637245  0.20771962  0.04173726    -0.64500
Ni1760     Ni  0.97739182  0.11006977  0.11289672     1.27400
Ni1761     Ni  0.89544907  0.10390595  0.12065709     1.26100
H1762       H  0.88832261  0.17254035  0.11468705     0.40700
N1763       N  0.77486277  0.11812152  0.17897960    -0.01900
C1764       C  0.74884606  0.09187447  0.17136483     0.00700
C1765       C  0.75975976  0.05394095  0.17399126    -0.22200
C1766       C  0.79363716  0.05806117  0.17528213    -0.22400
C1767       C  0.80226638  0.09843022  0.17390157     0.05400
H1768       H  0.74496054  0.02760366  0.16797872     0.14400
H1769       H  0.80976879  0.03550582  0.17002249     0.14500
N1770       N  0.79038372  0.11304837  0.27807383    -0.01900
C1771       C  0.81257307  0.08575503  0.29123986     0.00700
C1772       C  0.79844528  0.04718570  0.29261596    -0.22200
C1773       C  0.76576747  0.05031285  0.28702260    -0.22400
C1774       C  0.76123215  0.09063257  0.28260236     0.00600
H1775       H  0.81006652  0.01978087  0.30148879     0.14400
H1776       H  0.74716375  0.02595121  0.29127334     0.14500
N1777       N  0.73261397  0.98563944  0.40983759    -0.01900
C1778       C  0.75219104  0.45931268  0.38504267     0.00700
C1779       C  0.77836596  0.47943761  0.36681418    -0.22200
C1780       C  0.77286854  0.02389328  0.38204654    -0.22400
C1781       C  0.74284283  0.02386867  0.39832055     0.00600
H1782       H  0.79010008  0.47022362  0.34356709     0.14400
H1783       H  0.78571366  0.04971528  0.36763323     0.14500
N1784       N  0.69387086  0.49285172  0.02023294    -0.01900
C1785       C  0.69152931  0.49387275  0.98319839     0.00700
C1786       C  0.66159109  0.02923345  0.97152642    -0.22200
C1787       C  0.65379572  0.04608397  0.00162073    -0.22400
C1788       C  0.67182063  0.02864162  0.03069319     0.00600
H1789       H  0.75577487  0.02636406  0.46212966     0.14400
H1790       H  0.64027699  0.07267152  0.00123901     0.14500
N1791       N  0.54225215  0.15114690  0.38237394    -0.01900
C1792       C  0.56602316  0.12683063  0.37695613     0.00700
C1793       C  0.55227832  0.08836017  0.37496368    -0.22200
C1794       C  0.51892615  0.08996913  0.37717100    -0.22400
C1795       C  0.51317064  0.12908703  0.38107290     0.00600
H1796       H  0.56445565  0.06317469  0.36725586     0.14400
H1797       H  0.50069816  0.06654369  0.37115251     0.14500
N1798       N  0.53880418  0.16432318  0.00242463    -0.01900
C1799       C  0.54627506  0.18188497  0.96823049     0.00700
C1800       C  0.52669114  0.21373797  0.95883752    -0.22200
C1801       C  0.00391201  0.21239025  0.99136628    -0.22400
C1802       C  0.51065377  0.18089683  0.01062370     0.00600
H1803       H  0.51735533  0.24425696  0.43707241     0.14400
H1804       H  0.98134071  0.22768936  0.99027919     0.14500
O1805       O  0.64763390  0.04697149  0.26559370    -0.79300
O1806       O  0.71141854  0.15863772  0.38181846    -0.64000
O1807       O  0.66159766  0.07989172  0.33187079    -1.10600
C1808       C  0.61232719  0.19430770  0.27472052     1.07600
O1809       O  0.66592085  0.18945737  0.38809011    -0.77200
O1810       O  0.60740243  0.17728801  0.35422394    -0.64800
Ni1811     Ni  0.68014219  0.04379975  0.30541732     1.34900
C1812       C  0.59708351  0.14060323  0.35895126     0.86400
O1813       O  0.70871160  0.07834846  0.38739221    -0.77700
O1814       O  0.71260018  0.03612225  0.34459906    -0.88000
C1815       C  0.69349612  0.17781778  0.40049740     0.85900
O1816       O  0.70434246  0.08742608  0.27961326    -0.66200
O1817       O  0.63539154  0.21392199  0.29020137    -0.85500
C1818       C  0.72961958  0.10345402  0.29401736     0.86800
C1819       C  0.71959191  0.04770020  0.37610654     1.08300
H1820       H  0.68308225  0.16540018  0.30270171     0.40100
O1821       O  0.66814933  0.15568277  0.32193419    -1.08100
O1822       O  0.61097054  0.11406158  0.34520080    -0.64800
Ni1823     Ni  0.63692214  0.11779193  0.30380650     1.26300
O1824       O  0.72768629  0.11894330  0.32394985    -0.65000
O1825       O  0.60978052  0.15638367  0.27769377    -0.77300
C1826       C  0.61826832  0.05828875  0.26309714     0.86100
O1827       O  0.60758026  0.07819062  0.28643675    -0.64500
Ni1828     Ni  0.65061500  0.20061321  0.33889949     1.27400
Ni1829     Ni  0.68916695  0.11839462  0.35530844     1.26100
H1830       H  0.64842806  0.06408404  0.35012288     0.40700
O1831       O  0.58778796  0.08592158  0.15417826    -0.79300
O1832       O  0.65562503  0.19376608  0.02590874    -0.64000
O1833       O  0.61443132  0.10680282  0.08503551    -1.10600
C1834       C  0.72293778  0.10153214  0.14223734     1.07600
O1835       O  0.69672426  0.15572823  0.01794625    -0.77200
O1836       O  0.70484242  0.08311596  0.05178817    -0.64800
Ni1837     Ni  0.57248830  0.10688102  0.10523461     1.34900
C1838       C  0.68195820  0.05591961  0.05894406     0.86400
O1839       O  0.59350309  0.16048087  0.02565991    -0.77700
O1840       O  0.55299093  0.12683857  0.05818125    -0.88000
C1841       C  0.67730184  0.18248118  0.00605074     0.85900
O1842       O  0.57799011  0.16001979  0.11813006    -0.66200
O1843       O  0.73293280  0.12031553  0.11242844    -0.85500
C1844       C  0.59604665  0.19187190  0.10966872     0.86800
C1845       C  0.56303512  0.14897510  0.02972982     1.08300
H1846       H  0.67487307  0.16359803  0.10297338     0.40100
O1847       O  0.67140130  0.14245001  0.08737748    -1.08100
O1848       O  0.66220853  0.05723866  0.08433623    -0.64800
Ni1849     Ni  0.65279279  0.09664112  0.11583614     1.26300
O1850       O  0.61959544  0.19309857  0.08724673    -0.65000
O1851       O  0.69275499  0.08837596  0.14657058    -0.77300
C1852       C  0.60854895  0.05960262  0.16387789     0.86100
O1853       O  0.63107773  0.05308270  0.14332421    -0.64500
Ni1854     Ni  0.71266030  0.13708193  0.06574959     1.27400
Ni1855     Ni  0.63287368  0.15258238  0.05651218     1.26100
H1856       H  0.61156379  0.08631987  0.06869417     0.40700
C1857       C  0.59847275  0.05542131  0.22921661    -0.14800
C1858       C  0.61123854  0.04027762  0.20140133    -0.30000
H1859       H  0.57825463  0.07488015  0.22418088     0.14200
H1860       H  0.63143412  0.02090343  0.20703306     0.14800
C1861       C  0.70190520  0.18183365  0.43918538    -0.14800
C1862       C  0.68076748  0.19739020  0.46047370    -0.30000
H1863       H  0.72278276  0.16637478  0.45135734     0.14200
H1864       H  0.65988346  0.21277650  0.44819177     0.14800
C1865       C  0.54685985  0.18458574  0.40318837    -0.14800
C1866       C  0.55965241  0.17908734  0.43772500    -0.30000
H1867       H  0.53116895  0.20880817  0.39516034     0.14200
H1868       H  0.57391169  0.15326680  0.44522887     0.14800
C1869       C  0.71240808  0.47593059  0.42985353    -0.14800
C1870       C  0.71625355  0.47513783  0.46625836    -0.30000
H1871       H  0.68877754  0.48244885  0.41681737     0.14200
H1872       H  0.66907500  0.96123749  0.46835414     0.14800
C1873       C  0.77230586  0.13444408  0.21401319    -0.14800
C1874       C  0.79661896  0.13207400  0.24092685    -0.30000
H1875       H  0.74747422  0.13722941  0.22281185     0.14200
H1876       H  0.82180019  0.13262766  0.23197975     0.14800
C1877       C  0.93366169  0.05169013  0.20447624    -0.14800
C1878       C  0.95315058  0.07538595  0.22472350    -0.30000
H1879       H  0.91143924  0.03613366  0.21566908     0.14200
H1880       H  0.97439525  0.09283798  0.21308991     0.14800
C1881       C  0.86443484  0.18394598  0.44637683    -0.14800
C1882       C  0.88117100  0.20527594  0.47069439    -0.30000
H1883       H  0.84296992  0.16453067  0.45448833     0.14200
H1884       H  0.90288129  0.22415499  0.46239186     0.14800
C1885       C  0.85850604  0.03952181  0.47426780    -0.14800
C1886       C  0.87083620  0.01885024  0.50470067    -0.30000
H1887       H  0.84451338  0.06496894  0.47780958     0.14200
H1888       H  0.88211658  0.00058129  0.99678737     0.14800
C1889       C  0.99279986  0.23327584  0.21387271    -0.14800
C1890       C  0.99199187  0.24985007  0.17889500    -0.30000
H1891       H  0.97771459  0.20615245  0.22116536     0.14200
H1892       H  0.00679172  0.27711977  0.17093211     0.14800
C1893       C  0.95057342  0.43736370  0.21766535    -0.14800
C1894       C  0.93363543  0.45179204  0.18772970    -0.30000
H1895       H  0.97317628  0.42284343  0.21476173     0.14200
H1896       H  0.91116592  0.46656542  0.19065202     0.14800
C1897       C  0.86145765  0.31895247  0.45872492    -0.14800
C1898       C  0.87484124  0.30256937  0.48963120    -0.30000
H1899       H  0.83995889  0.33618055  0.45945788     0.14200
H1900       H  0.89650845  0.28577953  0.48840903     0.14800
C1901       C  0.77149945  0.38401165  0.20581535    -0.14800
C1902       C  0.78578063  0.39797361  0.23609460    -0.30000
H1903       H  0.75448772  0.35772755  0.20847375     0.14200
H1904       H  0.80304075  0.42402085  0.23309945     0.14800
C1905       C  0.61131386  0.42483759  0.21607796    -0.14800
C1906       C  0.62711492  0.44114358  0.18656893    -0.30000
H1907       H  0.58841098  0.40675412  0.21334600     0.14200
H1908       H  0.64968626  0.45975631  0.18965131     0.14800
C1909       C  0.70544617  0.31170420  0.45487771    -0.14800
C1910       C  0.68979338  0.29667486  0.48472020    -0.30000
H1911       H  0.72731441  0.33181601  0.45673534     0.14200
H1912       H  0.66859936  0.27560178  0.48236464     0.14800
C1913       C  0.52182644  0.35402437  0.47008968    -0.14800
C1914       C  0.53685570  0.34603105  0.43981211    -0.30000
H1915       H  0.50515901  0.37796327  0.46810866     0.14200
H1916       H  0.55337800  0.32195879  0.44214224     0.14800
C1917       C  0.61913679  0.28020622  0.20246429    -0.14800
C1918       C  0.61433712  0.27941307  0.23863494    -0.30000
H1919       H  0.64055373  0.29808960  0.19182434     0.14200
H1920       H  0.63170151  0.29769073  0.25367892     0.14800
N1921       N  0.60909933  0.25075707  0.64087457    -0.01900
C1922       C  0.59833336  0.25170123  0.67550965     0.00700
C1923       C  0.56857950  0.23030219  0.68032258    -0.22200
C1924       C  0.56237329  0.21165741  0.64986673    -0.22400
C1925       C  0.58883749  0.22123442  0.62720568     0.00600
H1926       H  0.55245880  0.22806017  0.70286157     0.14400
H1927       H  0.54236992  0.18932317  0.64675930     0.14500
N1928       N  0.58171687  0.25495287  0.75746235    -0.01900
C1929       C  0.56536155  0.26800028  0.78482458     0.00700
C1930       C  0.54424068  0.23737388  0.80008417    -0.22200
C1931       C  0.55131869  0.20370098  0.78507982    -0.22400
C1932       C  0.57882023  0.21468586  0.76436876     0.00600
H1933       H  0.53090806  0.23730112  0.82492325     0.14400
H1934       H  0.54463782  0.17383638  0.79768331     0.14500
N1935       N  0.53008491  0.36612348  0.90362456    -0.01900
C1936       C  0.55781374  0.38625378  0.89045922     0.00700
C1937       C  0.55025556  0.42347209  0.87395791    -0.22200
C1938       C  0.51670181  0.42454277  0.87414675    -0.22400
C1939       C  0.00703445  0.39618933  0.89562797     0.00600
H1940       H  0.56647609  0.44461467  0.85777826     0.14400
H1941       H  0.00503086  0.45416833  0.86180676     0.14500
N1942       N  0.52576867  0.32993807  0.50474817    -0.01900
C1943       C  0.55251839  0.30923013  0.51544745     0.00700
C1944       C  0.54145611  0.27325067  0.53423692    -0.22200
C1945       C  0.50874586  0.27612675  0.54089225    -0.22400
C1946       C  0.99896486  0.31861055  0.52563459     0.00600
H1947       H  0.55680041  0.25221681  0.54989400     0.14400
H1948       H  0.98986455  0.26319796  0.56216299     0.14500
O1949       O  0.65238414  0.30496891  0.91793603    -0.79300
O1950       O  0.60708326  0.40664813  0.77920717    -0.64000
O1951       O  0.64676090  0.32710557  0.84242057    -1.10600
C1952       C  0.72471569  0.43287787  0.86230449     1.07600
O1953       O  0.65468596  0.42600713  0.75390227    -0.77200
O1954       O  0.71375031  0.40099530  0.77951976    -0.64800
Ni1955     Ni  0.62179252  0.29423714  0.87831151     1.34900
C1956       C  0.72225898  0.36734892  0.79412934     0.86400
O1957       O  0.59321390  0.32926292  0.79429547    -0.77700
O1958       O  0.59055118  0.27999077  0.84084088    -0.88000
C1959       C  0.62350266  0.41987946  0.75179414     0.85900
O1960       O  0.59330820  0.33249273  0.89276693    -0.66200
O1961       O  0.71412888  0.45022814  0.83209131    -0.85500
C1962       C  0.58478832  0.36547053  0.87651331     0.86800
C1963       C  0.58275882  0.29497803  0.80856940     1.08300
H1964       H  0.64939693  0.41900961  0.84462450     0.40100
O1965       O  0.65900448  0.40211930  0.82892115    -1.08100
O1966       O  0.70923690  0.34926362  0.82267669    -0.64800
Ni1967     Ni  0.68059193  0.36239847  0.85916584     1.26300
O1968       O  0.59640384  0.38054964  0.84631654    -0.65000
O1969       O  0.71395543  0.39871642  0.87640339    -0.77300
C1970       C  0.68379268  0.31013466  0.91855265     0.86100
O1971       O  0.69925627  0.32145522  0.89003942    -0.64500
Ni1972     Ni  0.68362452  0.43682970  0.79428073     1.27400
Ni1973     Ni  0.62565561  0.36646993  0.81136934     1.26100
H1974       H  0.65607577  0.30940648  0.82731083     0.40700
O1975       O  0.70836246  0.35078890  0.51863841    -0.79300
O1976       O  0.63863982  0.43706364  0.62754206    -0.64000
O1977       O  0.68500034  0.36083465  0.58737425    -1.10600
C1978       C  0.57866471  0.32971746  0.53630836     1.07600
O1979       O  0.60221235  0.38935134  0.64836040    -0.77200
O1980       O  0.59258749  0.31540285  0.62301341    -0.64800
Ni1981     Ni  0.72418644  0.37559974  0.56173591     1.34900
C1982       C  0.61375185  0.28984870  0.61992429     0.86400
O1983       O  0.70121469  0.41706869  0.63599064    -0.77700
O1984       O  0.74265955  0.39846280  0.60385088    -0.88000
C1985       C  0.61967219  0.42162559  0.65196923     0.85900
O1986       O  0.71468634  0.42864364  0.53931100    -0.66200
O1987       O  0.56822398  0.35099491  0.55945037    -0.85500
C1988       C  0.69510729  0.45431094  0.54702019     0.86800
C1989       C  0.73161523  0.41360387  0.63088910     1.08300
H1990       H  0.62268560  0.40230320  0.55915293     0.40100
O1991       O  0.62673121  0.38229113  0.57931019    -1.08100
O1992       O  0.63839465  0.29800879  0.59966059    -0.64800
Ni1993     Ni  0.64769850  0.34074724  0.56083328     1.26300
O1994       O  0.67375979  0.44569609  0.57135468    -0.65000
O1995       O  0.60883744  0.32201053  0.53412060    -0.77300
C1996       C  0.69199209  0.31704009  0.51753857     0.86100
O1997       O  0.67226780  0.30342012  0.54196271    -0.64500
Ni1998     Ni  0.58644166  0.36985742  0.60313059     1.27400
Ni1999     Ni  0.66343948  0.40083128  0.60740905     1.26100
H2000       H  0.69041908  0.34090204  0.60711912     0.40700
N2001       N  0.77925645  0.40329355  0.67016729    -0.01900
C2002       C  0.75646173  0.42848289  0.65644265     0.00700
C2003       C  0.77198418  0.46527237  0.64553147    -0.22200
C2004       C  0.80520701  0.46082149  0.64904625    -0.22400
C2005       C  0.80890479  0.42116029  0.66126747     0.00600
H2006       H  0.76109935  0.48935708  0.62844915     0.14400
H2007       H  0.82365150  0.48127933  0.63542402     0.14500
N2008       N  0.77861275  0.37508874  0.77148551    -0.01900
C2009       C  0.75167169  0.35062421  0.78086601     0.00700
C2010       C  0.76162635  0.31447620  0.79753415    -0.22200
C2011       C  0.79520764  0.31870880  0.80199631    -0.22400
C2012       C  0.80498456  0.35703900  0.78723344     0.00600
H2013       H  0.74603092  0.29060020  0.81124641     0.14400
H2014       H  0.81001485  0.29825858  0.81906311     0.14500
O2015       O  0.90328078  0.43999504  0.75778533    -0.79300
O2016       O  0.86036286  0.33401376  0.89602865    -0.64000
O2017       O  0.90483429  0.41439901  0.83372733    -1.10600
C2018       C  0.96780454  0.30892458  0.81011235     1.07600
O2019       O  0.90628703  0.31186362  0.92183950    -0.77200
O2020       O  0.96542881  0.34318003  0.89604649    -0.64800
Ni2021     Ni  0.88047014  0.45025740  0.80110156     1.34900
C2022       C  0.97695767  0.37619903  0.88014526     0.86400
O2023       O  0.85699573  0.41167406  0.88452655    -0.77700
O2024       O  0.85822358  0.46540357  0.84268990    -0.88000
C2025       C  0.87593927  0.31893299  0.92345436     0.85900
O2026       O  0.84383567  0.41410392  0.78828744    -0.66200
O2027       O  0.96080597  0.29235231  0.84200216    -0.85500
C2028       C  0.83444902  0.37909817  0.80205434     0.86800
C2029       C  0.85238756  0.44808687  0.87466426     1.08300
H2030       H  0.89546381  0.32160372  0.83126109     0.40100
O2031       O  0.90870452  0.33869899  0.84616376    -1.08100
O2032       O  0.96584614  0.39141496  0.84933575    -0.64800
Ni2033     Ni  0.93133715  0.37871023  0.81453725     1.26300
O2034       O  0.84814761  0.36196395  0.83027228    -0.65000
O2035       O  0.95733325  0.34194088  0.79621748    -0.77300
C2036       C  0.93379170  0.43451496  0.75444969     0.86100
O2037       O  0.95100029  0.41960510  0.78113903    -0.64500
Ni2038     Ni  0.93289469  0.30427121  0.88047021     1.27400
Ni2039     Ni  0.88195710  0.37457617  0.86495357     1.26100
H2040       H  0.91836365  0.43092662  0.84890016     0.40700
O2041       O  0.96272042  0.42097221  0.64800868    -0.79300
O2042       O  0.88863557  0.30549004  0.55001070    -0.64000
O2043       O  0.93355020  0.39687783  0.58229137    -1.10600
C2044       C  0.83182234  0.40083157  0.64088895     1.07600
O2045       O  0.84616345  0.33894624  0.53042544    -0.77200
O2046       O  0.83087257  0.40871061  0.55674765    -0.64800
Ni2047     Ni  0.97479681  0.39131845  0.60842650     1.34900
C2048       C  0.84972793  0.44027036  0.55619885     0.86400
O2049       O  0.94736092  0.34141851  0.53553578    -0.77700
O2050       O  0.99019179  0.36002998  0.57155422    -0.88000
C2051       C  0.86776699  0.31442859  0.52542410     0.85900
O2052       O  0.96231156  0.34398422  0.63988320    -0.66200
O2053       O  0.82038133  0.37187472  0.62312696    -0.85500
C2054       C  0.94409660  0.31397139  0.63234490     0.86800
C2055       C  0.97774059  0.34280469  0.54436256     1.08300
H2056       H  0.87855143  0.34040375  0.61736867     0.40100
O2057       O  0.87812960  0.35945243  0.59585408    -1.08100
O2058       O  0.87918497  0.44105538  0.56926773    -0.64800
Ni2059     Ni  0.89735731  0.40758991  0.61005458     1.26300
O2060       O  0.92812466  0.31271937  0.60260128    -0.65000
O2061       O  0.86085905  0.41715512  0.63789898    -0.77300
C2062       C  0.94049400  0.44517422  0.65137006     0.86100
O2063       O  0.91986232  0.45337288  0.62581507    -0.64500
Ni2064     Ni  0.83426229  0.35503475  0.57761815     1.27400
Ni2065     Ni  0.91230072  0.35030266  0.56544299     1.26100
H2066       H  0.93658053  0.41724453  0.56195020     0.40700
N2067       N  0.96105671  0.24827336  0.65406249    -0.01900
C2068       C  0.94083480  0.27758237  0.65756214     0.00700
C2069       C  0.90918222  0.26094157  0.66340758    -0.22200
C2070       C  0.90964926  0.22124723  0.65904087    -0.22400
C2071       C  0.94167717  0.21490181  0.65148604     0.00600
H2072       H  0.88707457  0.27704723  0.66298735     0.14400
H2073       H  0.88813389  0.20106974  0.65671388     0.14500
N2074       N  0.98195829  0.25386932  0.77440160    -0.01900
C2075       C  0.98907322  0.29011886  0.78664102     0.00700
C2076       C  0.01026337  0.31349322  0.76366280    -0.22200
C2077       C  0.01595676  0.29172491  0.73582811    -0.22400
C2078       C  0.99739366  0.25558650  0.74202786     0.00600
H2079       H  0.01825346  0.34454838  0.76514340     0.14400
H2080       H  0.03007449  0.30312561  0.71228854     0.14500
N2081       N  0.84598769  0.01406334  0.90859696    -0.01900
C2082       C  0.84059810  0.47022251  0.90343032     0.00700
C2083       C  0.82002427  0.45187687  0.92999150    -0.22200
C2084       C  0.81861620  0.47793169  0.95550829    -0.22400
C2085       C  0.83749924  0.01234715  0.94404873     0.00600
H2086       H  0.80791406  0.42221596  0.93109095     0.14400
H2087       H  0.80512216  0.47209447  0.98027037     0.14500
N2088       N  0.85044860  0.01100476  0.53622542    -0.01900
C2089       C  0.83427470  0.47809391  0.54551773     0.00700
C2090       C  0.80266027  0.48330189  0.55570078    -0.22200
C2091       C  0.80229422  0.02132753  0.55994659    -0.22400
C2092       C  0.83203830  0.03851856  0.54781893     0.00600
H2093       H  0.78476215  0.46025230  0.56651275     0.14400
H2094       H  0.78444818  0.03526378  0.57449211     0.14500
O2095       O  0.91559482  0.19646993  0.91397101    -0.79300
O2096       O  0.94717411  0.11405247  0.77320758    -0.64000
O2097       O  0.91100629  0.17161631  0.84368548    -1.10600
C2098       C  0.85895070  0.04801781  0.88508417     1.07600
O2099       O  0.90583517  0.06734142  0.76842075    -0.77200
O2100       O  0.85518342  0.10639111  0.78986799    -0.64800
Ni2101     Ni  0.94125503  0.20416840  0.87073505     1.34900
C2102       C  0.84298600  0.13082984  0.80850094     0.86400
O2103       O  0.94827435  0.19281000  0.78170279    -0.77700
O2104       O  0.96999197  0.21858363  0.83044886    -0.88000
C2105       C  0.93281762  0.08527374  0.75805634     0.85900
O2106       O  0.96725598  0.16090103  0.88889882    -0.66200
O2107       O  0.85133957  0.05053081  0.85131884    -0.85500
C2108       C  0.98028242  0.13831784  0.86901752     0.86800
C2109       C  0.96557939  0.22019589  0.79609695     1.08300
H2110       H  0.92773713  0.08034683  0.84721901     0.40100
O2111       O  0.91093193  0.09656060  0.83551183    -1.08100
O2112       O  0.85117796  0.13244367  0.84220832    -0.64800
Ni2113     Ni  0.89205950  0.12437653  0.87055269     1.26300
O2114       O  0.97076065  0.13519139  0.83602632    -0.65000
O2115       O  0.87614967  0.07588970  0.89814998    -0.77300
C2116       C  0.88805964  0.17873520  0.92297023     0.86100
O2117       O  0.87340864  0.15274396  0.90508098    -0.64500
Ni2118     Ni  0.87992658  0.06265032  0.81060267     1.27400
Ni2119     Ni  0.93000475  0.14380437  0.80827676     1.26100
H2120       H  0.89424766  0.18803033  0.83215735     0.40700
O2121       O  0.85304580  0.17236585  0.52157542    -0.79300
O2122       O  0.90885357  0.05674938  0.64155734    -0.64000
O2123       O  0.88202084  0.15177294  0.58969684    -1.10600
C2124       C  0.98854561  0.16385801  0.54127657     1.07600
O2125       O  0.95978974  0.08105570  0.65338577    -0.77200
O2126       O  0.96494723  0.15739489  0.63677633    -0.64800
Ni2127     Ni  0.83868650  0.15807433  0.57066055     1.34900
C2128       C  0.94896118  0.18739326  0.62565057     0.86400
O2129       O  0.85359287  0.09543749  0.64280491    -0.77700
O2130       O  0.82131555  0.14373293  0.61861762    -0.88000
C2131       C  0.93338561  0.06118369  0.66310613     0.85900
O2132       O  0.82926237  0.10464990  0.55946799    -0.66200
O2133       O  0.99749088  0.14773378  0.57248011    -0.85500
C2134       C  0.84642019  0.07446853  0.56190402     0.86800
C2135       C  0.82729716  0.11433998  0.64229055     1.08300
H2136       H  0.93337808  0.09147099  0.57060372     0.40100
O2137       O  0.93318140  0.11193210  0.58694253    -1.08100
O2138       O  0.93845383  0.19485138  0.59289671    -0.64800
Ni2139     Ni  0.91950744  0.15912733  0.55964237     1.26300
O2140       O  0.87404383  0.07232804  0.57898627    -0.65000
O2141       O  0.95830953  0.16623649  0.53133749    -0.77300
C2142       C  0.87766740  0.19488615  0.51000120     0.86100
O2143       O  0.90191115  0.20338285  0.53094777    -0.64500
Ni2144     Ni  0.97560889  0.11403008  0.61159496     1.27400
Ni2145     Ni  0.89379996  0.10353837  0.61525948     1.26100
H2146       H  0.88423345  0.17105482  0.60696444     0.40700
N2147       N  0.77465142  0.12021653  0.67289732    -0.01900
C2148       C  0.74730492  0.09625649  0.66605738     0.00700
C2149       C  0.75608109  0.05732402  0.66811966    -0.22200
C2150       C  0.79000849  0.05908151  0.66866248    -0.22400
C2151       C  0.80062718  0.09869803  0.66752099     0.05400
H2152       H  0.74002435  0.03208522  0.66167030     0.14400
H2153       H  0.80504345  0.03582299  0.66290164     0.14500
N2154       N  0.79165960  0.14730453  0.76997655    -0.01900
C2155       C  0.81743724  0.15771653  0.79232086     0.00700
C2156       C  0.80929636  0.18935632  0.81022346    -0.22200
C2157       C  0.77705405  0.19590255  0.80104611    -0.22400
C2158       C  0.76563435  0.16661350  0.77928022     0.00600
H2159       H  0.82338621  0.20208588  0.83202974     0.14400
H2160       H  0.76192585  0.21337759  0.81584549     0.14500
N2161       N  0.73475570  0.99606432  0.89924704    -0.01900
C2162       C  0.75015027  0.45550578  0.88161601     0.00700
C2163       C  0.77652596  0.47183484  0.86130591    -0.22200
C2164       C  0.77595651  0.01208236  0.86151468    -0.22400
C2165       C  0.75163999  0.02708060  0.88019665     0.00600
H2166       H  0.78668191  0.45911819  0.83883194     0.14400
H2167       H  0.79050260  0.02867078  0.84029062     0.14500
N2168       N  0.69481503  0.49299749  0.52506999    -0.01900
C2169       C  0.69360698  0.49496430  0.48798589     0.00700
C2170       C  0.73872109  0.02272807  0.48373704    -0.22200
C2171       C  0.74111023  0.04464788  0.51240743    -0.22400
C2172       C  0.71468537  0.03261414  0.53448621     0.00600
H2173       H  0.65391683  0.03991528  0.94410013     0.14400
H2174       H  0.75833105  0.07029692  0.51430318     0.14500
N2175       N  0.54022589  0.13054146  0.88248985    -0.01900
C2176       C  0.56413194  0.10896621  0.87136245     0.00700
C2177       C  0.54979021  0.07466239  0.85852314    -0.22200
C2178       C  0.51631044  0.07731270  0.85897766    -0.22400
C2179       C  0.51087194  0.11279615  0.87262939     0.00600
H2180       H  0.56195094  0.05353427  0.84449569     0.14400
H2181       H  0.49819982  0.05850018  0.84554983     0.14500
N2182       N  0.53812668  0.17268679  0.50052210    -0.01900
C2183       C  0.54394932  0.19544894  0.46811421     0.00700
C2184       C  0.52008436  0.22287338  0.46085254    -0.22200
C2185       C  0.00441524  0.21445025  0.49026457    -0.22400
C2186       C  0.50761480  0.18225903  0.51008118     0.00600
H2187       H  0.52605880  0.23297737  0.93343355     0.14400
H2188       H  0.98173837  0.22953843  0.48918404     0.14500
O2189       O  0.66672467  0.07097710  0.74790753    -0.79300
O2190       O  0.70736886  0.15816680  0.88776079    -0.64000
O2191       O  0.67197821  0.08735973  0.82087145    -1.10600
C2192       C  0.60771491  0.19528110  0.77996413     1.07600
O2193       O  0.65868386  0.18109892  0.89616270    -0.77200
O2194       O  0.60299576  0.16407478  0.85882178    -0.64800
Ni2195     Ni  0.69969250  0.06824781  0.78774501     1.34900
C2196       C  0.59577735  0.12708262  0.85690736     0.86400
O2197       O  0.71640673  0.08111962  0.87746974    -0.77700
O2198       O  0.73367441  0.06131740  0.82551506    -0.88000
C2199       C  0.68780066  0.17406575  0.90707529     0.85900
O2200       O  0.72008157  0.11956638  0.77015481    -0.66200
O2201       O  0.62612298  0.21532566  0.80082522    -0.85500
C2202       C  0.73541101  0.14254886  0.79101321     0.86800
C2203       C  0.73353253  0.05936350  0.86040131     1.08300
H2204       H  0.67965400  0.17678601  0.80853634     0.40100
O2205       O  0.66580019  0.16056246  0.82581046    -1.08100
O2206       O  0.61282063  0.10591354  0.83924736    -0.64800
Ni2207     Ni  0.64146261  0.12282576  0.79945440     1.26300
O2208       O  0.72842345  0.14200099  0.82441321    -0.65000
O2209       O  0.60975296  0.15830769  0.77812072    -0.77300
C2210       C  0.63522104  0.07113362  0.74761563     0.86100
O2211       O  0.62021136  0.08327103  0.77319037    -0.64500
Ni2212     Ni  0.64267782  0.19708755  0.84806707     1.27400
Ni2213     Ni  0.69131071  0.12239656  0.85336054     1.26100
H2214       H  0.66079100  0.06469460  0.83461669     0.40700
O2215       O  0.59414725  0.07959770  0.64193624    -0.79300
O2216       O  0.65743677  0.19749696  0.51870784    -0.64000
O2217       O  0.61704929  0.10600327  0.57251140    -1.10600
C2218       C  0.72233950  0.10878721  0.63712444     1.07600
O2219       O  0.70189007  0.16320609  0.51458396    -0.77200
O2220       O  0.72037342  0.09622214  0.55609209    -0.64800
Ni2221     Ni  0.57611697  0.10403481  0.59559690     1.34900
C2222       C  0.70131671  0.06475542  0.55434901     0.86400
O2223       O  0.59407496  0.16368501  0.51777154    -0.77700
O2224       O  0.55455509  0.12930384  0.55175317    -0.88000
C2225       C  0.68083041  0.18704079  0.50033864     0.85900
O2226       O  0.58235959  0.15479909  0.61363729    -0.66200
O2227       O  0.73045738  0.13897915  0.61449518    -0.85500
C2228       C  0.59827063  0.18827577  0.60547944     0.86800
C2229       C  0.56350241  0.15350562  0.52407637     1.08300
H2230       H  0.67105681  0.16304606  0.59844258     0.40100
O2231       O  0.67151553  0.14501847  0.57996455    -1.08100
O2232       O  0.67233844  0.06235130  0.56684962    -0.64800
Ni2233     Ni  0.65587552  0.09498844  0.60235008     1.26300
O2234       O  0.61965661  0.19302648  0.58040430    -0.65000
O2235       O  0.69548029  0.08691660  0.63344640    -0.77300
C2236       C  0.61706897  0.05563172  0.64961458     0.86100
O2237       O  0.63570331  0.04775985  0.62531615    -0.64500
Ni2238     Ni  0.71515926  0.15079151  0.56475942     1.27400
Ni2239     Ni  0.63411165  0.15495682  0.54770697     1.26100
H2240       H  0.61458913  0.08683503  0.55486443     0.40700
C2241       C  0.61557963  0.06247045  0.71482557    -0.14800
C2242       C  0.62843818  0.04609650  0.68764828    -0.30000
H2243       H  0.59182865  0.07536031  0.71079809     0.14200
H2244       H  0.65207600  0.03299937  0.69208236     0.14800
C2245       C  0.69736421  0.17999589  0.94484269    -0.14800
C2246       C  0.67649396  0.19483450  0.96667824    -0.30000
H2247       H  0.71919010  0.16594301  0.95626844     0.14200
H2248       H  0.65501171  0.20957451  0.95516417     0.14800
C2249       C  0.54408559  0.16326857  0.90446949    -0.14800
C2250       C  0.55672913  0.15801780  0.93922286    -0.30000
H2251       H  0.52962033  0.18846426  0.89572867     0.14200
H2252       H  0.56874711  0.13072583  0.94803915     0.14800
C2253       C  0.71213304  0.47917536  0.92416926    -0.14800
C2254       C  0.71540957  0.47668136  0.96078996    -0.30000
H2255       H  0.68888577  0.48653849  0.91069364     0.14200
H2256       H  0.72772036  0.97032535  0.96860138     0.14800
C2257       C  0.77461205  0.13983812  0.70608369    -0.14800
C2258       C  0.79345553  0.12873804  0.73655131    -0.30000
H2259       H  0.75681086  0.16207371  0.70745605     0.14200
H2260       H  0.81144637  0.10671288  0.73551518     0.14800
C2261       C  0.92873004  0.05208430  0.70228665    -0.14800
C2262       C  0.94681039  0.07404794  0.72511855    -0.30000
H2263       H  0.90551586  0.03675681  0.71088378     0.14200
H2264       H  0.96939778  0.09072790  0.71620776     0.14800
C2265       C  0.87339143  0.18608856  0.95705573    -0.14800
C2266       C  0.88975233  0.20812730  0.98070242    -0.30000
H2267       H  0.85122061  0.16801174  0.96522324     0.14200
H2268       H  0.91267511  0.22478522  0.97296278     0.14800
C2269       C  0.84925261  0.03976824  0.97109220    -0.14800
C2270       C  0.86581347  0.02370601  0.00114623    -0.30000
H2271       H  0.83269615  0.06293815  0.97414284     0.14200
H2272       H  0.88582317  0.99454675  0.50005763     0.14800
C2273       C  0.98685555  0.23115655  0.71235641    -0.14800
C2274       C  0.98996123  0.24680365  0.67714786    -0.30000
H2275       H  0.96734069  0.20824590  0.71862905     0.14200
H2276       H  0.00925666  0.26959727  0.66973046     0.14800
C2277       C  0.94894314  0.44025814  0.71818338    -0.14800
C2278       C  0.93314389  0.45584831  0.68790074    -0.30000
H2279       H  0.97188826  0.42628243  0.71574300     0.14200
H2280       H  0.91016570  0.46966887  0.69042017     0.14800
C2281       C  0.85913975  0.31501483  0.95846388    -0.14800
C2282       C  0.87440570  0.30126648  0.98925815    -0.30000
H2283       H  0.83570977  0.32836507  0.95945025     0.14200
H2284       H  0.89800808  0.28852046  0.98783679     0.14800
C2285       C  0.77476778  0.38109723  0.70538003    -0.14800
C2286       C  0.78098178  0.39841035  0.73650417    -0.30000
H2287       H  0.76629322  0.34978303  0.70671818     0.14200
H2288       H  0.79035817  0.42942443  0.73519006     0.14800
C2289       C  0.60718822  0.42154120  0.71589751    -0.14800
C2290       C  0.62422242  0.43695828  0.68703056    -0.30000
H2291       H  0.58434170  0.40349802  0.71265131     0.14200
H2292       H  0.64685156  0.45531068  0.69066969     0.14800
C2293       C  0.70178117  0.31115991  0.95344203    -0.14800
C2294       C  0.68671800  0.29673654  0.98387483    -0.30000
H2295       H  0.72345887  0.33172285  0.95443738     0.14200
H2296       H  0.66560933  0.27537346  0.98234993     0.14800
C2297       C  0.52004811  0.35623874  0.96885923    -0.14800
C2298       C  0.53086116  0.34242385  0.93864314    -0.30000
H2299       H  0.50703038  0.38345403  0.96617833     0.14200
H2300       H  0.54391143  0.31523265  0.94142589     0.14800
C2301       C  0.61589301  0.27572451  0.70276849    -0.14800
C2302       C  0.60896497  0.27701124  0.73830918    -0.30000
H2303       H  0.63744685  0.29392923  0.69293172     0.14200
H2304       H  0.62524213  0.29682751  0.75302140     0.14800
N2305       N  0.61509959  0.75438794  0.14073324    -0.01900
C2306       C  0.60592181  0.75549048  0.17593597     0.00700
C2307       C  0.57509878  0.73708207  0.18133145    -0.22200
C2308       C  0.56669489  0.71940256  0.15078178    -0.22400
C2309       C  0.59328846  0.72588519  0.12788372     0.00600
H2310       H  0.55994769  0.73592401  0.20457047     0.14400
H2311       H  0.54549126  0.69857322  0.14833448     0.14500
N2312       N  0.59354440  0.75440716  0.25868969    -0.01900
C2313       C  0.57648996  0.76678112  0.28582424     0.00700
C2314       C  0.55544681  0.73573351  0.30030040    -0.22200
C2315       C  0.56193268  0.70284735  0.28379347    -0.22400
C2316       C  0.58976880  0.71397627  0.26363485     0.00600
H2317       H  0.54156400  0.73499039  0.32483869     0.14400
H2318       H  0.55432448  0.67269652  0.29493402     0.14500
N2319       N  0.53739667  0.87200279  0.40770116    -0.01900
C2320       C  0.56498986  0.89029696  0.39243499     0.00700
C2321       C  0.55769247  0.92725345  0.37502800    -0.22200
C2322       C  0.52427554  0.92946599  0.37646192    -0.22400
C2323       C  0.01245484  0.90281697  0.38581628     0.00600
H2324       H  0.57368524  0.94716906  0.35743540     0.14400
H2325       H  0.01121115  0.95790815  0.34768821     0.14500
N2326       N  0.52453988  0.82628303  0.00878111    -0.01900
C2327       C  0.55230107  0.80769945  0.01962732     0.00700
C2328       C  0.54299763  0.77172798  0.03957124    -0.22200
C2329       C  0.50999277  0.77231173  0.04604005    -0.22400
C2330       C  0.99783776  0.82838636  0.02248414     0.00600
H2331       H  0.55940277  0.75244772  0.05575615     0.14400
H2332       H  0.99083826  0.77313464  0.05969666     0.14500
O2333       O  0.65783125  0.80789294  0.42059283    -0.79300
O2334       O  0.61342170  0.90790136  0.28084715    -0.64000
O2335       O  0.65349216  0.82966774  0.34492331    -1.10600
C2336       C  0.72897641  0.93719741  0.36588129     1.07600
O2337       O  0.66053180  0.92940003  0.25537719    -0.77200
O2338       O  0.71869368  0.90258945  0.28120193    -0.64800
Ni2339     Ni  0.62811970  0.79674337  0.38051139     1.34900
C2340       C  0.72716048  0.86916759  0.29630752     0.86400
O2341       O  0.60162722  0.82980611  0.29508800    -0.77700
O2342       O  0.59796263  0.78164613  0.34250204    -0.88000
C2343       C  0.62947205  0.92167710  0.25336421     0.85900
O2344       O  0.59919682  0.83493870  0.39449353    -0.66200
O2345       O  0.72034743  0.95300559  0.33424063    -0.85500
C2346       C  0.59090982  0.86790917  0.37803010     0.86800
C2347       C  0.59174018  0.79531623  0.30947047     1.08300
H2348       H  0.65459555  0.92195114  0.34620050     0.40100
O2349       O  0.66472456  0.90499822  0.33098569    -1.08100
O2350       O  0.71553744  0.85274763  0.32622028    -0.64800
Ni2351     Ni  0.68629749  0.86574128  0.36206891     1.26300
O2352       O  0.60228469  0.88209332  0.34745732    -0.65000
O2353       O  0.71839590  0.90295628  0.37995042    -0.77300
C2354       C  0.68919722  0.81327122  0.42173051     0.86100
O2355       O  0.70503246  0.82529230  0.39359931    -0.64500
Ni2356     Ni  0.68972232  0.93952420  0.29615458     1.27400
Ni2357     Ni  0.63242263  0.86834040  0.31313299     1.26100
H2358       H  0.66336909  0.81196764  0.33025299     0.40700
O2359       O  0.70856048  0.85596608  0.01472332    -0.79300
O2360       O  0.63945511  0.94042932  0.12720911    -0.64000
O2361       O  0.68605568  0.86676960  0.08362129    -1.10600
C2362       C  0.57855406  0.83064313  0.03827454     1.07600
O2363       O  0.60472259  0.89156531  0.14919423    -0.77200
O2364       O  0.59577805  0.81782543  0.12321578    -0.64800
Ni2365     Ni  0.72403573  0.88355389  0.05641856     1.34900
C2366       C  0.61798245  0.79363441  0.11983054     0.86400
O2367       O  0.70174030  0.92092005  0.13355968    -0.77700
O2368       O  0.74272437  0.90844066  0.09775885    -0.88000
C2369       C  0.62203032  0.92402398  0.15265896     0.85900
O2370       O  0.71103192  0.93474149  0.03244395    -0.66200
O2371       O  0.56846779  0.85283110  0.06089998    -0.85500
C2372       C  0.69169040  0.95976098  0.04184492     0.86800
C2373       C  0.73198403  0.91970926  0.12691609     1.08300
H2374       H  0.62203936  0.90607260  0.05835644     0.40100
O2375       O  0.62703719  0.88610466  0.07828205    -1.08100
O2376       O  0.64197847  0.80303319  0.09892222    -0.64800
Ni2377     Ni  0.64832873  0.84513041  0.05903164     1.26300
O2378       O  0.67307564  0.95092002  0.06898758    -0.65000
O2379       O  0.60882963  0.82400958  0.03497090    -0.77300
C2380       C  0.69335494  0.82129721  0.01513508     0.86100
O2381       O  0.67301486  0.80839228  0.03924498    -0.64500
Ni2382     Ni  0.58783008  0.87207316  0.10408373     1.27400
Ni2383     Ni  0.66410591  0.90529637  0.10522301     1.26100
H2384       H  0.69283888  0.84710553  0.10295105     0.40700
N2385       N  0.77745872  0.90556141  0.16930443    -0.01900
C2386       C  0.75658577  0.93238885  0.15370141     0.00700
C2387       C  0.77391154  0.96813318  0.14384718    -0.22200
C2388       C  0.80646733  0.96184453  0.15011266    -0.22400
C2389       C  0.80802100  0.92166615  0.16167961     0.00600
H2390       H  0.76502366  0.99253397  0.12546617     0.14400
H2391       H  0.82614858  0.98128330  0.13758837     0.14500
N2392       N  0.78207440  0.87424482  0.27113616    -0.01900
C2393       C  0.75497972  0.85070851  0.28156838     0.00700
C2394       C  0.76477081  0.81502098  0.29957303    -0.22200
C2395       C  0.79823365  0.81957853  0.30489952    -0.22400
C2396       C  0.80804041  0.85742650  0.28906806     0.00600
H2397       H  0.74905456  0.79201502  0.31431620     0.14400
H2398       H  0.81265957  0.80018429  0.32352544     0.14500
O2399       O  0.90154842  0.94329115  0.25798910    -0.79300
O2400       O  0.86435614  0.83849900  0.40040799    -0.64000
O2401       O  0.90587507  0.91826970  0.33427021    -1.10600
C2402       C  0.96709356  0.81240184  0.30889922     1.07600
O2403       O  0.91173904  0.81858474  0.42466141    -0.77200
O2404       O  0.96959299  0.85122916  0.39405961    -0.64800
Ni2405     Ni  0.88047157  0.95366587  0.30220429     1.34900
C2406       C  0.98066960  0.88277524  0.37519329     0.86400
O2407       O  0.85889838  0.91575185  0.38632802    -0.77700
O2408       O  0.85969901  0.96931752  0.34430220    -0.88000
C2409       C  0.88117567  0.82424714  0.42742792     0.85900
O2410       O  0.84436877  0.91626055  0.29106283    -0.66200
O2411       O  0.96314546  0.79795232  0.34216425    -0.85500
C2412       C  0.83624110  0.88083034  0.30470499     0.86800
C2413       C  0.85435462  0.95213762  0.37634216     1.08300
H2414       H  0.89699026  0.82450540  0.33477501     0.40100
O2415       O  0.91055277  0.84277421  0.34821848    -1.08100
O2416       O  0.96765647  0.89600990  0.34491465    -0.64800
Ni2417     Ni  0.93094601  0.88193247  0.31403841     1.26300
O2418       O  0.85009743  0.86445216  0.33323932    -0.65000
O2419       O  0.95511800  0.84432971  0.29452142    -0.77300
C2420       C  0.93172587  0.93736297  0.25354524     0.86100
O2421       O  0.94939341  0.92182807  0.27929494    -0.64500
Ni2422     Ni  0.93689336  0.81053909  0.38200423     1.27400
Ni2423     Ni  0.88416299  0.87874786  0.36714061     1.26100
H2424       H  0.92015947  0.93499418  0.34856092     0.40700
O2425       O  0.96082882  0.92800103  0.14649588    -0.79300
O2426       O  0.88953654  0.81369276  0.04364855    -0.64000
O2427       O  0.93172181  0.90453756  0.08026211    -1.10600
C2428       C  0.83033378  0.90142163  0.14050157     1.07600
O2429       O  0.84498048  0.84479849  0.02679328    -0.77200
O2430       O  0.82873439  0.91357413  0.05523067    -0.64800
Ni2431     Ni  0.97253360  0.89798688  0.10712736     1.34900
C2432       C  0.84725377  0.94533388  0.05582514     0.86400
O2433       O  0.94681949  0.85376027  0.03038526    -0.77700
O2434       O  0.98791671  0.86603445  0.07072846    -0.88000
C2435       C  0.86707009  0.82132410  0.02050486     0.85900
O2436       O  0.95711172  0.85181188  0.13823344    -0.66200
O2437       O  0.81863139  0.87409674  0.12099678    -0.85500
C2438       C  0.94085880  0.82140323  0.12850551     0.86800
C2439       C  0.97650762  0.85206830  0.04142866     1.08300
H2440       H  0.87810149  0.84382834  0.11329956     0.40100
O2441       O  0.87718178  0.86393001  0.09270553    -1.08100
O2442       O  0.87630567  0.94620411  0.06985090    -0.64800
Ni2443     Ni  0.89541452  0.91158649  0.10896410     1.26300
O2444       O  0.92931403  0.81970877  0.09651776    -0.65000
O2445       O  0.85938169  0.91752826  0.13825544    -0.77300
C2446       C  0.93749340  0.95029811  0.15075505     0.86100
O2447       O  0.91620720  0.95755062  0.12585755    -0.64500
Ni2448     Ni  0.83305095  0.85934807  0.07472581     1.27400
Ni2449     Ni  0.91160992  0.85847782  0.06124849     1.26100
H2450       H  0.93453639  0.92617777  0.06097767     0.40700
N2451       N  0.95363290  0.75459130  0.15090879    -0.01900
C2452       C  0.93488282  0.78543462  0.15361091     0.00700
C2453       C  0.90233799  0.77108880  0.15714622    -0.22200
C2454       C  0.90100900  0.73148710  0.15186199    -0.22400
C2455       C  0.93300337  0.72262634  0.14707972     0.00600
H2456       H  0.88112837  0.78876904  0.15624562     0.14400
H2457       H  0.87871931  0.71310710  0.14789967     0.14500
N2458       N  0.97768798  0.75713006  0.27140293    -0.01900
C2459       C  0.98676675  0.79269170  0.28437731     0.00700
C2460       C  0.00773819  0.81560725  0.26087616    -0.22200
C2461       C  0.01144305  0.79432395  0.23218721    -0.22400
C2462       C  0.99200162  0.75882648  0.23841440     0.00600
H2463       H  0.01672790  0.84630243  0.26259700     0.14400
H2464       H  0.02465557  0.80597670  0.20807354     0.14500
N2465       N  0.85467443  0.50844640  0.41158293    -0.01900
C2466       C  0.84337019  0.97458752  0.40497619     0.00700
C2467       C  0.82207678  0.95714771  0.43116242    -0.22200
C2468       C  0.82074524  0.98372539  0.45614752    -0.22400
C2469       C  0.84475199  0.50905618  0.44631995     0.00600
H2470       H  0.80889057  0.92811683  0.43195030     0.14400
H2471       H  0.80614357  0.97908378  0.48012955     0.14500
N2472       N  0.85344968  0.50961583  0.03673791    -0.01900
C2473       C  0.83238860  0.98346738  0.04459014     0.00700
C2474       C  0.80145072  0.99012429  0.05573686    -0.22200
C2475       C  0.80348961  0.51945498  0.05753699    -0.22400
C2476       C  0.83435340  0.53633224  0.04888182     0.00600
H2477       H  0.78313700  0.96778710  0.06674990     0.14400
H2478       H  0.78442839  0.53305723  0.07058621     0.14500
O2479       O  0.91137063  0.69065136  0.41207536    -0.79300
O2480       O  0.95354808  0.61590542  0.27115477    -0.64000
O2481       O  0.90971130  0.66852839  0.34031143    -1.10600
C2482       C  0.86919488  0.54106857  0.38727164     1.07600
O2483       O  0.92892254  0.55411525  0.27871796    -0.77200
O2484       O  0.87340756  0.58882929  0.28852636    -0.64800
Ni2485     Ni  0.93555545  0.70471372  0.36804489     1.34900
C2486       C  0.85045999  0.60414628  0.30307287     0.86400
O2487       O  0.94629169  0.69393685  0.27856356    -0.77700
O2488       O  0.96157453  0.72520357  0.32709182    -0.88000
C2489       C  0.94770910  0.58072655  0.26188093     0.85900
O2490       O  0.96797598  0.66777192  0.38507644    -0.66200
O2491       O  0.86590813  0.53976998  0.35328824    -0.85500
C2492       C  0.98429141  0.64885628  0.36477935     0.86800
C2493       C  0.96047125  0.72385110  0.29282109     1.08300
H2494       H  0.93955407  0.58491003  0.35223172     0.40100
O2495       O  0.92091199  0.59479190  0.33799591    -1.08100
O2496       O  0.85431613  0.61574004  0.33531664    -0.64800
Ni2497     Ni  0.89417735  0.62076812  0.36835956     1.26300
O2498       O  0.97530969  0.64426416  0.33207618    -0.65000
O2499       O  0.88234484  0.57223016  0.39918964    -0.77300
C2500       C  0.88313727  0.67343956  0.41892973     0.86100
O2501       O  0.86927162  0.64884060  0.39868667    -0.64500
Ni2502     Ni  0.89880733  0.55109641  0.31673337     1.27400
Ni2503     Ni  0.93321451  0.64322150  0.30654208     1.26100
H2504       H  0.89163688  0.68196348  0.32791663     0.40700
O2505       O  0.84768971  0.66717273  0.02266905    -0.79300
O2506       O  0.91119496  0.56099011  0.14816223    -0.64000
O2507       O  0.87905180  0.65107335  0.09083224    -1.10600
C2508       C  0.98338800  0.67072274  0.04152766     1.07600
O2509       O  0.96263298  0.58759073  0.15417751    -0.77200
O2510       O  0.95754244  0.66402218  0.13791824    -0.64800
Ni2511     Ni  0.83517252  0.65430681  0.07276506     1.34900
C2512       C  0.94155702  0.69298049  0.12402544     0.86400
O2513       O  0.85410901  0.59634229  0.14730614    -0.77700
O2514       O  0.81918608  0.64092466  0.12155438    -0.88000
C2515       C  0.93826927  0.56525944  0.16616057     0.85900
O2516       O  0.82866342  0.60036245  0.06320470    -0.66200
O2517       O  0.99233432  0.66114244  0.07438249    -0.85500
C2518       C  0.84725230  0.57154231  0.06554741     0.86800
C2519       C  0.82697027  0.61353548  0.14649904     1.08300
H2520       H  0.93362334  0.59286262  0.07436725     0.40100
O2521       O  0.93209318  0.61449926  0.08914662    -1.08100
O2522       O  0.93346681  0.69819235  0.09028444    -0.64800
Ni2523     Ni  0.91560406  0.65888049  0.05966128     1.26300
O2524       O  0.87439502  0.57042515  0.08404890    -0.65000
O2525       O  0.95357045  0.66622939  0.03027920    -0.77300
C2526       C  0.87147575  0.68991356  0.00936863     0.86100
O2527       O  0.89593570  0.70041007  0.02914234    -0.64500
Ni2528     Ni  0.97415219  0.62372727  0.11303018     1.27400
Ni2529     Ni  0.89349306  0.60509826  0.11866521     1.26100
H2530       H  0.88065444  0.67130004  0.10700345     0.40700
N2531       N  0.77418366  0.61750911  0.17766920    -0.01900
C2532       C  0.74845402  0.59069566  0.17091030     0.00700
C2533       C  0.75946031  0.55271760  0.17527785    -0.22200
C2534       C  0.79327986  0.55712620  0.17641525    -0.22400
C2535       C  0.80154395  0.59770552  0.17321049     0.05400
H2536       H  0.74502428  0.52591753  0.16973367     0.14400
H2537       H  0.80935948  0.53428765  0.17151032     0.14500
N2538       N  0.79295620  0.61787526  0.27498168    -0.01900
C2539       C  0.81725721  0.59354856  0.28789772     0.00700
C2540       C  0.80627424  0.55383816  0.29092655    -0.22200
C2541       C  0.77316058  0.55323707  0.28625346    -0.22400
C2542       C  0.76558988  0.59269429  0.28101982     0.00600
H2543       H  0.82028090  0.52839144  0.30028805     0.14400
H2544       H  0.75638921  0.52719108  0.29174812     0.14500
N2545       N  0.74115651  0.48339923  0.40813390    -0.01900
C2546       C  0.74851201  0.96321845  0.38870519     0.00700
C2547       C  0.77492940  0.98571479  0.37336708    -0.22200
C2548       C  0.78026967  0.51782430  0.37636145    -0.22400
C2549       C  0.75248537  0.52081351  0.39589129     0.00600
H2550       H  0.78960312  0.97751023  0.35191478     0.14400
H2551       H  0.79383523  0.54269056  0.36156674     0.14500
N2552       N  0.68886233  0.99838836  0.01992358    -0.01900
C2553       C  0.68417852  0.00121497  0.98281027     0.00700
C2554       C  0.67166707  0.52359872  0.96860851    -0.22200
C2555       C  0.66271625  0.54275367  0.99696151    -0.22400
C2556       C  0.67733852  0.52474026  0.02822602     0.00600
H2557       H  0.67359122  0.53779745  0.44445881     0.14400
H2558       H  0.65061343  0.57054851  0.99433375     0.14500
N2559       N  0.54699994  0.64576325  0.38778490    -0.01900
C2560       C  0.57062540  0.62175927  0.38078191     0.00700
C2561       C  0.55659296  0.58375625  0.37707506    -0.22200
C2562       C  0.52330064  0.58540225  0.37964555    -0.22400
C2563       C  0.51778292  0.62409527  0.38532711     0.00600
H2564       H  0.56852353  0.55912144  0.36792243     0.14400
H2565       H  0.50493908  0.56258581  0.37255911     0.14500
N2566       N  0.53824939  0.66450516  0.00621459    -0.01900
C2567       C  0.54348103  0.68192167  0.97147389     0.00700
C2568       C  0.52154282  0.71140060  0.96250013    -0.22200
C2569       C  0.99826055  0.72125098  0.99032828    -0.22400
C2570       C  0.50975769  0.67911463  0.01623411     0.00600
H2571       H  0.51955024  0.73525243  0.44227611     0.14400
H2572       H  0.97585041  0.73680184  0.98983702     0.14500
O2573       O  0.65286635  0.54450284  0.26667711    -0.79300
O2574       O  0.71688122  0.65351263  0.38512103    -0.64000
O2575       O  0.66705694  0.57626223  0.33362304    -1.10600
C2576       C  0.61793020  0.69218713  0.27832349     1.07600
O2577       O  0.67105279  0.68293390  0.39301253    -0.77200
O2578       O  0.61219500  0.67265772  0.35914993    -0.64800
Ni2579     Ni  0.68609458  0.54154618  0.30578811     1.34900
C2580       C  0.60163261  0.63603258  0.36251816     0.86400
O2581       O  0.71604221  0.57389529  0.38809877    -0.77700
O2582       O  0.72010959  0.53432972  0.34347357    -0.88000
C2583       C  0.69848156  0.67043581  0.40511899     0.85900
O2584       O  0.70881306  0.58616920  0.27999393    -0.66200
O2585       O  0.63955458  0.71185641  0.29596645    -0.85500
C2586       C  0.73388375  0.60285484  0.29414076     0.86800
C2587       C  0.72821488  0.54510389  0.37502581     1.08300
H2588       H  0.68756868  0.66289856  0.30659403     0.40100
O2589       O  0.67290315  0.65221081  0.32576461    -1.08100
O2590       O  0.61532309  0.61008474  0.34749527    -0.64800
Ni2591     Ni  0.64214720  0.61493318  0.30642732     1.26300
O2592       O  0.73235685  0.61694503  0.32482981    -0.65000
O2593       O  0.61565433  0.65425896  0.28059640    -0.77300
C2594       C  0.62377857  0.55661030  0.26383897     0.86100
O2595       O  0.61298683  0.57609281  0.28745890    -0.64500
Ni2596     Ni  0.65538864  0.69631438  0.34420745     1.27400
Ni2597     Ni  0.69479181  0.61418082  0.35768796     1.26100
H2598       H  0.65391324  0.55997999  0.35160322     0.40700
O2599       O  0.59164862  0.58446783  0.15456435    -0.79300
O2600       O  0.65860264  0.68663891  0.02097631    -0.64000
O2601       O  0.61532932  0.60370979  0.08376366    -1.10600
C2602       C  0.72356646  0.59905773  0.14068615     1.07600
O2603       O  0.69828375  0.64538145  0.01536703    -0.77200
O2604       O  0.70979471  0.57598035  0.05505644    -0.64800
Ni2605     Ni  0.57489107  0.60571439  0.10637722     1.34900
C2606       C  0.68489265  0.55089875  0.05792539     0.86400
O2607       O  0.59408401  0.65730549  0.02471088    -0.77700
O2608       O  0.55432287  0.62661400  0.06054490    -0.88000
C2609       C  0.68056279  0.67344137  0.00223310     0.85900
O2610       O  0.58330463  0.65855194  0.11884121    -0.66200
O2611       O  0.73372941  0.62041373  0.11217431    -0.85500
C2612       C  0.60122669  0.69006169  0.10886668     0.86800
C2613       C  0.56353224  0.64780047  0.03130288     1.08300
H2614       H  0.67632969  0.65847249  0.10031585     0.40100
O2615       O  0.67283916  0.63744013  0.08459187    -1.08100
O2616       O  0.66216195  0.55398988  0.07968345    -0.64800
Ni2617     Ni  0.65404040  0.59205659  0.11305138     1.26300
O2618       O  0.62319043  0.69066039  0.08446857    -0.65000
O2619       O  0.69420907  0.58246147  0.14281614    -0.77300
C2620       C  0.61197866  0.55746442  0.16328799     0.86100
O2621       O  0.63209529  0.54884246  0.14078967    -0.64500
Ni2622     Ni  0.71438663  0.63198173  0.06419170     1.27400
Ni2623     Ni  0.63437346  0.64830093  0.05404735     1.26100
H2624       H  0.61101905  0.58302887  0.06777978     0.40700
C2625       C  0.60440415  0.55468072  0.22947371    -0.14800
C2626       C  0.61748237  0.54047758  0.20125612    -0.30000
H2627       H  0.58343675  0.57302433  0.22494855     0.14200
H2628       H  0.63863489  0.52256573  0.20628458     0.14800
C2629       C  0.70562561  0.66998786  0.44466992    -0.14800
C2630       C  0.68429225  0.68484566  0.46613110    -0.30000
H2631       H  0.72505676  0.65186570  0.45669661     0.14200
H2632       H  0.66512336  0.70326861  0.45386374     0.14800
C2633       C  0.55177504  0.67681578  0.41145040    -0.14800
C2634       C  0.55946536  0.66736688  0.44739728    -0.30000
H2635       H  0.54115040  0.70471277  0.40198734     0.14200
H2636       H  0.56898690  0.63839391  0.45575096     0.14800
C2637       C  0.70091966  0.97301245  0.42534916    -0.14800
C2638       C  0.69273386  0.97566227  0.46021548    -0.30000
H2639       H  0.68339676  0.95582392  0.40943509     0.14200
H2640       H  0.74011430  0.46870588  0.47876898     0.14800
C2641       C  0.77184276  0.63580487  0.21168873    -0.14800
C2642       C  0.79704753  0.63660734  0.23742546    -0.30000
H2643       H  0.74713473  0.63724011  0.22142840     0.14200
H2644       H  0.82192435  0.63894555  0.22730342     0.14800
C2645       C  0.94011521  0.55055812  0.20508439    -0.14800
C2646       C  0.96019935  0.57146467  0.22735547    -0.30000
H2647       H  0.91886556  0.53260252  0.21610290     0.14200
H2648       H  0.98030933  0.59141168  0.21620938     0.14800
C2649       C  0.86764074  0.67941637  0.45334740    -0.14800
C2650       C  0.88203913  0.70406382  0.47651550    -0.30000
H2651       H  0.84670253  0.65929620  0.46190174     0.14200
H2652       H  0.90355634  0.72321009  0.46808480     0.14800
C2653       C  0.85685147  0.53669399  0.47307937    -0.14800
C2654       C  0.87038491  0.51984751  0.50472860    -0.30000
H2655       H  0.84110367  0.56109618  0.47446497     0.14200
H2656       H  0.88587701  0.49466550  0.99649406     0.14800
C2657       C  0.97947803  0.73559344  0.20859192    -0.14800
C2658       C  0.98272666  0.75123252  0.17348551    -0.30000
H2659       H  0.95883585  0.71427325  0.21484782     0.14200
H2660       H  0.00284938  0.77278105  0.16587656     0.14800
C2661       C  0.94620788  0.94368539  0.21716197    -0.14800
C2662       C  0.92998101  0.95964046  0.18750474    -0.30000
H2663       H  0.96923606  0.93010715  0.21411911     0.14200
H2664       H  0.90673868  0.97267738  0.19059036     0.14800
C2665       C  0.86526960  0.81949932  0.46320918    -0.14800
C2666       C  0.87979264  0.80280315  0.49365679    -0.30000
H2667       H  0.84263220  0.83431242  0.46507722     0.14200
H2668       H  0.90248453  0.78819202  0.49161878     0.14800
C2669       C  0.77044936  0.88527403  0.20512787    -0.14800
C2670       C  0.78550298  0.89732835  0.23590047    -0.30000
H2671       H  0.75245290  0.85993610  0.20714857     0.14200
H2672       H  0.80365940  0.92248572  0.23344892     0.14800
C2673       C  0.61267318  0.92205572  0.21770552    -0.14800
C2674       C  0.62797057  0.93883567  0.18808656    -0.30000
H2675       H  0.59051628  0.90254889  0.21525347     0.14200
H2676       H  0.64969734  0.95899011  0.19089000     0.14800
C2677       C  0.70665828  0.81377512  0.45691319    -0.14800
C2678       C  0.69086420  0.79984755  0.48700272    -0.30000
H2679       H  0.72826530  0.83438558  0.45833081     0.14200
H2680       H  0.67009249  0.77797788  0.48530911     0.14800
C2681       C  0.52128167  0.85488097  0.47128160    -0.14800
C2682       C  0.53827569  0.84712911  0.44216587    -0.30000
H2683       H  0.50336017  0.87744721  0.46789865     0.14200
H2684       H  0.55605971  0.82444070  0.44597670     0.14800
C2685       C  0.62556886  0.77769576  0.20310333    -0.14800
C2686       C  0.62025902  0.77721087  0.23931238    -0.30000
H2687       H  0.64688298  0.79591140  0.19263795     0.14200
H2688       H  0.63698567  0.79627107  0.25434530     0.14800
N2689       N  0.60978783  0.75838249  0.63818917    -0.01900
C2690       C  0.59231945  0.75715239  0.66904860     0.00700
C2691       C  0.56110622  0.74055674  0.66363590    -0.22200
C2692       C  0.55999824  0.72721917  0.63012563    -0.22400
C2693       C  0.59207623  0.73191355  0.61813218     0.00600
H2694       H  0.54459116  0.72970826  0.68513150     0.14400
H2695       H  0.54118764  0.70553616  0.62173149     0.14500
N2696       N  0.58203518  0.74383048  0.76620412    -0.01900
C2697       C  0.56720190  0.75799653  0.79374631     0.00700
C2698       C  0.54753618  0.72755279  0.81152497    -0.22200
C2699       C  0.55205649  0.69370279  0.79522570    -0.22400
C2700       C  0.57740932  0.70359871  0.77105341     0.00600
H2701       H  0.53565149  0.72821876  0.83714309     0.14400
H2702       H  0.54490342  0.66388509  0.80756154     0.14500
N2703       N  0.53347000  0.86668284  0.90936642    -0.01900
C2704       C  0.56059143  0.88548148  0.89352628     0.00700
C2705       C  0.55267171  0.92204865  0.87596442    -0.22200
C2706       C  0.51931978  0.92390031  0.87843094    -0.22400
C2707       C  0.00666976  0.89900985  0.89002605     0.00600
H2708       H  0.56817913  0.94191893  0.85779018     0.14400
H2709       H  0.00620070  0.95711419  0.85618765     0.14500
N2710       N  0.52581981  0.83295260  0.50686806    -0.01900
C2711       C  0.55357475  0.81444554  0.51757170     0.00700
C2712       C  0.54454561  0.77802627  0.53666886    -0.22200
C2713       C  0.51158047  0.77823146  0.54328874    -0.22400
C2714       C  0.99821720  0.83808022  0.51078035     0.00600
H2715       H  0.56109523  0.75833516  0.55200780     0.14400
H2716       H  0.98176497  0.77712265  0.53344499     0.14500
O2717       O  0.65726987  0.80272940  0.92034026    -0.79300
O2718       O  0.60502913  0.89803374  0.77850443    -0.64000
O2719       O  0.64784174  0.82484547  0.84571030    -1.10600
C2720       C  0.71587524  0.93970134  0.86704003     1.07600
O2721       O  0.65242449  0.92503005  0.75683253    -0.77200
O2722       O  0.71335563  0.91162328  0.78736704    -0.64800
Ni2723     Ni  0.62364816  0.79371967  0.88302768     1.34900
C2724       C  0.72153484  0.87634589  0.79751354     0.86400
O2725       O  0.59810535  0.81908019  0.79513864    -0.77700
O2726       O  0.58887217  0.78066457  0.84813877    -0.88000
C2727       C  0.62169635  0.91606694  0.75288244     0.85900
O2728       O  0.59998034  0.83577139  0.89859531    -0.66200
O2729       O  0.70083223  0.95833799  0.84016269    -0.85500
C2730       C  0.58621509  0.86329017  0.87877186     0.86800
C2731       C  0.58467330  0.78864211  0.81358889     1.08300
H2732       H  0.64242063  0.91450711  0.84817815     0.40100
O2733       O  0.65420576  0.90045168  0.83187086    -1.08100
O2734       O  0.70650990  0.85346339  0.82201792    -0.64800
Ni2735     Ni  0.67952000  0.86345837  0.86088990     1.26300
O2736       O  0.59205744  0.87168063  0.84515272    -0.65000
O2737       O  0.71154933  0.90252176  0.87651319    -0.77300
C2738       C  0.68839540  0.81100068  0.91923952     0.86100
O2739       O  0.70211583  0.82474976  0.89017616    -0.64500
Ni2740     Ni  0.67637556  0.94013701  0.79946862     1.27400
Ni2741     Ni  0.62530986  0.86090579  0.81274871     1.26100
H2742       H  0.65814686  0.80655052  0.83204161     0.40700
O2743       O  0.70903173  0.85589102  0.51877734    -0.79300
O2744       O  0.63958493  0.94478688  0.62916551    -0.64000
O2745       O  0.68571636  0.86924002  0.58675699    -1.10600
C2746       C  0.57951960  0.83727742  0.53647873     1.07600
O2747       O  0.60253049  0.89637124  0.64737645    -0.77200
O2748       O  0.59246865  0.82338864  0.62074732    -0.64800
Ni2749     Ni  0.72461313  0.88229274  0.56104070     1.34900
C2750       C  0.61484478  0.79872580  0.61963991     0.86400
O2751       O  0.70226895  0.92433102  0.63595794    -0.77700
O2752       O  0.74308052  0.90634050  0.60248790    -0.88000
C2753       C  0.61990458  0.92822963  0.65269264     0.85900
O2754       O  0.71353405  0.93377620  0.53743747    -0.66200
O2755       O  0.56926867  0.86143951  0.55710364    -0.85500
C2756       C  0.69511413  0.96096253  0.54467390     0.86800
C2757       C  0.73250734  0.92046527  0.63030145     1.08300
H2758       H  0.62407673  0.91103343  0.55829324     0.40100
O2759       O  0.62774484  0.89113060  0.57865573    -1.08100
O2760       O  0.64040429  0.80797272  0.60128489    -0.64800
Ni2761     Ni  0.64848775  0.84872850  0.56104359     1.26300
O2762       O  0.67497343  0.95491706  0.57065552    -0.65000
O2763       O  0.60949632  0.82847786  0.53578344    -0.77300
C2764       C  0.69249308  0.82218116  0.51872100     0.86100
O2765       O  0.67244565  0.81006833  0.54320236    -0.64500
Ni2766     Ni  0.58710103  0.87861273  0.60162459     1.27400
Ni2767     Ni  0.66438434  0.90938019  0.60708873     1.26100
H2768       H  0.69131060  0.84960348  0.60666517     0.40700
N2769       N  0.77959347  0.90745301  0.67015523    -0.01900
C2770       C  0.75783237  0.93389552  0.65592917     0.00700
C2771       C  0.77472179  0.96933850  0.64416894    -0.22200
C2772       C  0.80759162  0.96322094  0.64812719    -0.22400
C2773       C  0.80982420  0.92368107  0.66132555     0.00600
H2774       H  0.76480698  0.99305872  0.62586645     0.14400
H2775       H  0.82671536  0.98228040  0.63415077     0.14500
N2776       N  0.77757718  0.88704989  0.77196120    -0.01900
C2777       C  0.75178366  0.86185034  0.78377314     0.00700
C2778       C  0.76302757  0.82577433  0.79896267    -0.22200
C2779       C  0.79663316  0.83019291  0.79931866    -0.22400
C2780       C  0.80507048  0.86887271  0.78435743     0.00600
H2781       H  0.74877951  0.80145054  0.81388368     0.14400
H2782       H  0.81280522  0.80975932  0.81442230     0.14500
O2783       O  0.90522167  0.94972490  0.75355286    -0.79300
O2784       O  0.85980254  0.84452410  0.89173896    -0.64000
O2785       O  0.90633912  0.92312321  0.82951290    -1.10600
C2786       C  0.96216825  0.81356147  0.80205597     1.07600
O2787       O  0.90431613  0.81766950  0.91654772    -0.77200
O2788       O  0.96373004  0.84755333  0.89033960    -0.64800
Ni2789     Ni  0.88248509  0.96024054  0.79714834     1.34900
C2790       C  0.97641804  0.87987633  0.87429583     0.86400
O2791       O  0.85936267  0.92201119  0.88046555    -0.77700
O2792       O  0.85974982  0.97568495  0.83869654    -0.88000
C2793       C  0.87471692  0.82755920  0.91875709     0.85900
O2794       O  0.84530111  0.92504677  0.78371045    -0.66200
O2795       O  0.95684217  0.79803655  0.83472431    -0.85500
C2796       C  0.83492874  0.89074577  0.79829628     0.86800
C2797       C  0.85288318  0.95769525  0.87019686     1.08300
H2798       H  0.89262594  0.83057403  0.82619559     0.40100
O2799       O  0.90690637  0.84671619  0.84100855    -1.08100
O2800       O  0.96605013  0.89532418  0.84330512    -0.64800
Ni2801     Ni  0.93036038  0.88572605  0.80923417     1.26300
O2802       O  0.84812293  0.87380930  0.82680596    -0.65000
O2803       O  0.95308364  0.84746197  0.78903643    -0.77300
C2804       C  0.93507701  0.94128130  0.74988270     0.86100
O2805       O  0.95165956  0.92552759  0.77650717    -0.64500
Ni2806     Ni  0.93014418  0.81022623  0.87429627     1.27400
Ni2807     Ni  0.88264466  0.88410158  0.86078764     1.26100
H2808       H  0.92086836  0.93884048  0.84443571     0.40700
O2809       O  0.96424781  0.92727840  0.64056744    -0.79300
O2810       O  0.89146585  0.80302665  0.55589967    -0.64000
O2811       O  0.93121471  0.90094480  0.57839200    -1.10600
C2812       C  0.83271290  0.90197659  0.64224768     1.07600
O2813       O  0.84827825  0.83471992  0.53483574    -0.77200
O2814       O  0.83067039  0.90581199  0.55624732    -0.64800
Ni2815     Ni  0.97558938  0.90868084  0.59408197     1.34900
C2816       C  0.84838494  0.93830761  0.55556179     0.86400
O2817       O  0.94801981  0.84234284  0.53742384    -0.77700
O2818       O  0.98874627  0.88868715  0.54924001    -0.88000
C2819       C  0.87098139  0.81139255  0.53035619     0.85900
O2820       O  0.98178201  0.85680103  0.61797978    -0.66200
O2821       O  0.82090965  0.87322601  0.62440400    -0.85500
C2822       C  0.96424574  0.82416428  0.62024129     0.86800
C2823       C  0.97673159  0.85894545  0.53263812     1.08300
H2824       H  0.88062162  0.84158429  0.62056326     0.40100
O2825       O  0.87928656  0.85978863  0.59853618    -1.08100
O2826       O  0.87687352  0.94125984  0.57027333    -0.64800
Ni2827     Ni  0.89745540  0.90961535  0.60968997     1.26300
O2828       O  0.93479540  0.82063667  0.60790581    -0.65000
O2829       O  0.86213985  0.91750389  0.63995456    -0.77300
C2830       C  0.94122551  0.94970692  0.64633755     0.86100
O2831       O  0.91938952  0.95714914  0.62207547    -0.64500
Ni2832     Ni  0.83544009  0.85343622  0.58048373     1.27400
Ni2833     Ni  0.91327974  0.85077387  0.56786783     1.26100
H2834       H  0.92914395  0.91873161  0.55618894     0.40700
N2835       N  0.96488968  0.75214432  0.64114273    -0.01900
C2836       C  0.98103878  0.78764682  0.63071144     0.00700
C2837       C  0.00905152  0.78204358  0.61253099    -0.22200
C2838       C  0.00865349  0.74213220  0.60923965    -0.22400
C2839       C  0.98163781  0.72441937  0.62739174     0.00600
H2840       H  0.02455633  0.80492259  0.59752187     0.14400
H2841       H  0.02385539  0.72829747  0.59144106     0.14500
N2842       N  0.96822033  0.75581567  0.76586754    -0.01900
C2843       C  0.97887605  0.79213935  0.77619023     0.00700
C2844       C  0.99802841  0.81315686  0.74944231    -0.22200
C2845       C  0.99876968  0.78959244  0.72172525    -0.22400
C2846       C  0.97935436  0.75519456  0.73184097     0.00600
H2847       H  0.00793842  0.84381654  0.74874690     0.14400
H2848       H  0.01005389  0.79818896  0.69577305     0.14500
N2849       N  0.85252110  0.50678098  0.91221942    -0.01900
C2850       C  0.83730164  0.97718667  0.89843061     0.00700
C2851       C  0.82084879  0.95396436  0.92622788    -0.22200
C2852       C  0.82053272  0.97628969  0.95466953    -0.22400
C2853       C  0.83996621  0.51057674  0.94518306     0.00600
H2854       H  0.81246949  0.92274832  0.92687990     0.14400
H2855       H  0.81096628  0.96585380  0.98108693     0.14500
N2856       N  0.85090448  0.51375147  0.53709906    -0.01900
C2857       C  0.83300892  0.97554688  0.54336507     0.00700
C2858       C  0.80253509  0.98141574  0.55634052    -0.22200
C2859       C  0.80063147  0.52352213  0.55640507    -0.22400
C2860       C  0.83101500  0.54122620  0.54643672     0.00600
H2861       H  0.78481729  0.95855062  0.56771738     0.14400
H2862       H  0.78128147  0.53729563  0.56882293     0.14500
O2863       O  0.90179495  0.68569188  0.90644693    -0.79300
O2864       O  0.95021193  0.61441017  0.77205701    -0.64000
O2865       O  0.90249109  0.66887252  0.83488657    -1.10600
C2866       C  0.86986899  0.53691517  0.88796350     1.07600
O2867       O  0.91269774  0.56384740  0.76917698    -0.77200
O2868       O  0.85718541  0.55931730  0.80368056    -0.64800
Ni2869     Ni  0.92713222  0.70359837  0.86408619     1.34900
C2870       C  0.84100003  0.59061641  0.80077323     0.86400
O2871       O  0.94000529  0.69219919  0.77510065    -0.77700
O2872       O  0.95288896  0.72600017  0.82302366    -0.88000
C2873       C  0.93776919  0.58471600  0.75712491     0.85900
O2874       O  0.96085943  0.66811110  0.88212059    -0.66200
O2875       O  0.88978903  0.52540255  0.86637083    -0.85500
C2876       C  0.97768560  0.64922829  0.86234542     0.86800
C2877       C  0.95226622  0.72330182  0.78877182     1.08300
H2878       H  0.93116433  0.59032895  0.85267841     0.40100
O2879       O  0.91360072  0.59629985  0.83513253    -1.08100
O2880       O  0.84867918  0.61958177  0.82015868    -0.64800
Ni2881     Ni  0.88252395  0.62174395  0.86019887     1.26300
O2882       O  0.96904146  0.64513281  0.82962107    -0.65000
O2883       O  0.86277577  0.57333449  0.88650482    -0.77300
C2884       C  0.87190253  0.67229623  0.91071340     0.86100
O2885       O  0.85641457  0.65185385  0.88762205    -0.64500
Ni2886     Ni  0.90120251  0.54699249  0.81811155     1.27400
Ni2887     Ni  0.92733761  0.64285681  0.80360841     1.26100
H2888       H  0.88604339  0.68367910  0.82077450     0.40700
O2889       O  0.85018829  0.67673260  0.52721212    -0.79300
O2890       O  0.91032857  0.55634331  0.64181031    -0.64000
O2891       O  0.88027621  0.65226028  0.59449886    -1.10600
C2892       C  0.98294828  0.65723919  0.53363468     1.07600
O2893       O  0.96055551  0.58446197  0.64964485    -0.77200
O2894       O  0.98128827  0.65704519  0.61901335    -0.64800
Ni2895     Ni  0.83647286  0.65836840  0.57640705     1.34900
C2896       C  0.96562367  0.68851426  0.61501511     0.86400
O2897       O  0.85587233  0.59568848  0.65003412    -0.77700
O2898       O  0.81979538  0.63919969  0.62433505    -0.88000
C2899       C  0.93571781  0.56271200  0.66160002     0.85900
O2900       O  0.82800452  0.60669053  0.56067163    -0.66200
O2901       O  0.99119061  0.62790378  0.55590903    -0.85500
C2902       C  0.84426207  0.57576750  0.56391791     0.86800
C2903       C  0.82843589  0.61234554  0.64961098     1.08300
H2904       H  0.92578285  0.59300207  0.56709817     0.40100
O2905       O  0.92928772  0.61164922  0.58512877    -1.08100
O2906       O  0.93884257  0.69236463  0.59663931    -0.64800
Ni2907     Ni  0.91635946  0.66091215  0.56237735     1.26300
O2908       O  0.87015132  0.57168693  0.58389944    -0.65000
O2909       O  0.95423857  0.67058026  0.53246596    -0.77300
C2910       C  0.87559114  0.69807988  0.51586407     0.86100
O2911       O  0.89876037  0.70714918  0.53784269    -0.64500
Ni2912     Ni  0.97367281  0.60585278  0.60199606     1.27400
Ni2913     Ni  0.89321286  0.60327709  0.61793513     1.26100
H2914       H  0.88337687  0.67108092  0.61242877     0.40700
N2915       N  0.77684928  0.61734011  0.68234262    -0.01900
C2916       C  0.74903067  0.59274999  0.67772084     0.00700
C2917       C  0.75908598  0.55418002  0.68010212    -0.22200
C2918       C  0.79305939  0.55671647  0.67913756    -0.22400
C2919       C  0.80329951  0.59662865  0.67713584     0.05400
H2920       H  0.74359587  0.52810849  0.67453895     0.14400
H2921       H  0.80783323  0.53316458  0.67300664     0.14500
N2922       N  0.78743545  0.61610256  0.76904906    -0.01900
C2923       C  0.81085757  0.58870158  0.77550683     0.00700
C2924       C  0.79651928  0.55092383  0.77133981    -0.22200
C2925       C  0.76342073  0.55429864  0.76812664    -0.22400
C2926       C  0.75841506  0.59402702  0.76976259     0.00600
H2927       H  0.80791898  0.52276916  0.77696337     0.14400
H2928       H  0.74501788  0.52951589  0.77023318     0.14500
N2929       N  0.74104052  0.48302368  0.90248019    -0.01900
C2930       C  0.74200085  0.96279256  0.88481735     0.00700
C2931       C  0.76961082  0.97146162  0.86419406    -0.22200
C2932       C  0.77999846  0.51167141  0.86624088    -0.22400
C2933       C  0.75363592  0.51862855  0.88666125     0.00600
H2934       H  0.77881961  0.95248829  0.84555404     0.14400
H2935       H  0.79319114  0.53387482  0.84787640     0.14500
N2936       N  0.69793987  0.99960216  0.52212995    -0.01900
C2937       C  0.71041384  0.99821706  0.48838406     0.00700
C2938       C  0.67629424  0.52683161  0.47297905    -0.22200
C2939       C  0.66740173  0.54611689  0.50128242    -0.22400
C2940       C  0.67953431  0.52607178  0.53307217     0.00600
H2941       H  0.66738424  0.53387497  0.94016233     0.14400
H2942       H  0.65687311  0.57493385  0.49856179     0.14500
N2943       N  0.54062086  0.63026313  0.88685399    -0.01900
C2944       C  0.56478236  0.60730003  0.87924465     0.00700
C2945       C  0.55075320  0.57148704  0.86876624    -0.22200
C2946       C  0.51731501  0.57441836  0.86681074    -0.22400
C2947       C  0.51163724  0.61118166  0.87740455     0.00600
H2948       H  0.56337999  0.54851332  0.85773857     0.14400
H2949       H  0.49951454  0.55405039  0.85477460     0.14500
N2950       N  0.53930462  0.66868644  0.51064720    -0.01900
C2951       C  0.54519735  0.68770646  0.47654598     0.00700
C2952       C  0.52250046  0.71630509  0.46755895    -0.22200
C2953       C  0.99796945  0.71098554  0.48447589    -0.22400
C2954       C  0.50963405  0.68138532  0.51974240     0.00600
H2955       H  0.51854201  0.72968318  0.93682249     0.14400
H2956       H  0.97475759  0.72492343  0.48339837     0.14500
O2957       O  0.64883286  0.54021351  0.76426810    -0.79300
O2958       O  0.71277109  0.65070126  0.88165239    -0.64000
O2959       O  0.66541393  0.57070050  0.83062253    -1.10600
C2960       C  0.60664272  0.68237971  0.78276337     1.07600
O2961       O  0.66478642  0.67391200  0.89273252    -0.77200
O2962       O  0.60525477  0.66064826  0.86088636    -0.64800
Ni2963     Ni  0.68496693  0.53983789  0.79974645     1.34900
C2964       C  0.59686554  0.62338348  0.86459916     0.86400
O2965       O  0.71683764  0.57114378  0.88134236    -0.77700
O2966       O  0.72205055  0.53518928  0.83417531    -0.88000
C2967       C  0.69397253  0.66608106  0.90264405     0.85900
O2968       O  0.70179253  0.58808109  0.77405597    -0.66200
O2969       O  0.62938617  0.70285127  0.79797709    -0.85500
C2970       C  0.72787045  0.60431686  0.78621268     0.86800
C2971       C  0.72988512  0.54412773  0.86644410     1.08300
H2972       H  0.67923207  0.65875903  0.80421699     0.40100
O2973       O  0.66636987  0.64648215  0.82439279    -1.08100
O2974       O  0.61338941  0.59878425  0.85119315    -0.64800
Ni2975     Ni  0.63632298  0.60719305  0.80705074     1.26300
O2976       O  0.72823666  0.61727863  0.81771427    -0.65000
O2977       O  0.60547816  0.64440527  0.78507302    -0.77300
C2978       C  0.61882016  0.54888824  0.76451771     0.86100
O2979       O  0.60824281  0.56639874  0.78966504    -0.64500
Ni2980     Ni  0.64714958  0.68770706  0.84518807     1.27400
Ni2981     Ni  0.69220574  0.61028611  0.85366970     1.26100
H2982       H  0.65451543  0.55249685  0.84916085     0.40700
O2983       O  0.59064532  0.58385124  0.65905245    -0.79300
O2984       O  0.65807743  0.68305512  0.52248685    -0.64000
O2985       O  0.61487045  0.60349425  0.58860477    -1.10600
C2986       C  0.72368443  0.60193488  0.64724346     1.07600
O2987       O  0.70015796  0.64460659  0.51973180    -0.77200
O2988       O  0.71146685  0.57622844  0.56240878    -0.64800
Ni2989     Ni  0.57619733  0.61200578  0.61277106     1.34900
C2990       C  0.68634603  0.55132747  0.56389173     0.86400
O2991       O  0.59435804  0.65139772  0.52564140    -0.77700
O2992       O  0.55638477  0.63901745  0.56859873    -0.88000
C2993       C  0.68148659  0.67118445  0.50527183     0.85900
O2994       O  0.59339346  0.66168579  0.62846462    -0.66200
O2995       O  0.73365361  0.62366830  0.61877604    -0.85500
C2996       C  0.60439685  0.69311036  0.60911639     0.86800
C2997       C  0.56442544  0.65121847  0.53583550     1.08300
H2998       H  0.67474689  0.66019711  0.60335916     0.40100
O2999       O  0.67240902  0.63826430  0.58853895    -1.08100
O3000       O  0.66276175  0.55480702  0.58456113    -0.64800
Ni3001     Ni  0.65407101  0.59307458  0.61791528     1.26300
O3002       O  0.62112100  0.69124451  0.58069467    -0.65000
O3003       O  0.69449313  0.58448920  0.64844397    -0.77300
C3004       C  0.60997488  0.55557134  0.66666453     0.86100
O3005       O  0.63263363  0.54969737  0.64590776    -0.64500
Ni3006     Ni  0.71492257  0.63297927  0.56976368     1.27400
Ni3007     Ni  0.63430493  0.64576659  0.55631552     1.26100
H3008       H  0.60917400  0.58135960  0.57458885     0.40700
C3009       C  0.59787043  0.54601060  0.73149567    -0.14800
C3010       C  0.61064631  0.53262142  0.70274581    -0.30000
H3011       H  0.57758972  0.56548141  0.72752638     0.14200
H3012       H  0.63071629  0.51309436  0.70765427     0.14800
C3013       C  0.70312326  0.66965333  0.94130054    -0.14800
C3014       C  0.68253577  0.68614807  0.96276979    -0.30000
H3015       H  0.72316122  0.65255217  0.95334086     0.14200
H3016       H  0.66303734  0.70400140  0.95045113     0.14800
C3017       C  0.54386631  0.66379703  0.90785415    -0.14800
C3018       C  0.55614037  0.65949595  0.94272369    -0.30000
H3019       H  0.52894525  0.68838765  0.89857654     0.14200
H3020       H  0.56910055  0.63300089  0.95190573     0.14800
C3021       C  0.70655425  0.99918977  0.92094393    -0.14800
C3022       C  0.70706530  0.98664228  0.95713501    -0.30000
H3023       H  0.68701346  0.01666419  0.90862918     0.14200
H3024       H  0.73889534  0.46913118  0.97361408     0.14800
C3025       C  0.78008301  0.65084492  0.70448104    -0.14800
C3026       C  0.79066061  0.64996699  0.74081501    -0.30000
H3027       H  0.78003316  0.68027202  0.68930154     0.14200
H3028       H  0.79727668  0.67874961  0.75049099     0.14800
C3029       C  0.93337564  0.55336439  0.70086901    -0.14800
C3030       C  0.95063390  0.57714961  0.72253501    -0.30000
H3031       H  0.91208511  0.53485715  0.71101833     0.14200
H3032       H  0.97103736  0.59712325  0.71209690     0.14800
C3033       C  0.85736630  0.67639719  0.94608420    -0.14800
C3034       C  0.87367786  0.69918062  0.96966044    -0.30000
H3035       H  0.83695204  0.65565811  0.95507320     0.14200
H3036       H  0.89416228  0.71961086  0.96023758     0.14800
C3037       C  0.85406883  0.53619728  0.97280542    -0.14800
C3038       C  0.86995373  0.51761722  0.00228830    -0.30000
H3039       H  0.83828455  0.55960799  0.97753905     0.14200
H3040       H  0.88680212  0.49635188  0.50195301     0.14800
C3041       C  0.96663787  0.72857039  0.70479056    -0.14800
C3042       C  0.94947924  0.74569723  0.67594214    -0.30000
H3043       H  0.98329108  0.70604073  0.70007175     0.14200
H3044       H  0.93348160  0.76867569  0.68151826     0.14800
C3045       C  0.94997149  0.94455557  0.71349336    -0.14800
C3046       C  0.93409901  0.95944513  0.68320513    -0.30000
H3047       H  0.97257984  0.92983363  0.71119015     0.14200
H3048       H  0.91124367  0.97349299  0.68582891     0.14800
C3049       C  0.85836819  0.82529387  0.95403446    -0.14800
C3050       C  0.87196152  0.80805225  0.98453778    -0.30000
H3051       H  0.83775967  0.84376570  0.95566791     0.14200
H3052       H  0.89266365  0.78981765  0.98248201     0.14800
C3053       C  0.77519662  0.88737582  0.70622294    -0.14800
C3054       C  0.77686284  0.90790039  0.73584679    -0.30000
H3055       H  0.77320193  0.85494957  0.70978635     0.14200
H3056       H  0.78050571  0.94024697  0.73253719     0.14800
C3057       C  0.60623641  0.92109431  0.71654204    -0.14800
C3058       C  0.62271045  0.94134190  0.68902935    -0.30000
H3059       H  0.58457270  0.90168777  0.71125432     0.14200
H3060       H  0.64389225  0.96130345  0.69467007     0.14800
C3061       C  0.70759845  0.81297192  0.95328397    -0.14800
C3062       C  0.69386831  0.79776210  0.98429308    -0.30000
H3063       H  0.72746256  0.83618767  0.95345247     0.14200
H3064       H  0.67496027  0.77341537  0.98370109     0.14800
C3065       C  0.51948073  0.84884020  0.97353454    -0.14800
C3066       C  0.53552387  0.84150393  0.94367235    -0.30000
H3067       H  0.50128457  0.87108371  0.97083089     0.14200
H3068       H  0.55355744  0.81908081  0.94670395     0.14800
C3069       C  0.60678126  0.75085489  0.70634901    -0.14800
C3070       C  0.59295555  0.76738797  0.73315216    -0.30000
H3071       H  0.61859078  0.72300591  0.71288245     0.14200
H3072       H  0.58254129  0.79610822  0.72624481     0.14800
loop_ 
_geom_bond_atom_site_label_1 
_geom_bond_atom_site_label_2 
_geom_bond_distance 
_geom_bond_site_symmetry_2 
_ccdc_geom_bond_type 
N1            C5   1.377       .  A
N1            C2   1.368       .  A
N1           C62   1.463       .  S
C2            C3   1.373       .  A
C2          C381   1.491       .  S
C3            C4   1.357       .  A
C3            H6   1.070       .  S
C4            C5   1.388       .  A
C4            H7   1.083       .  S
C5          C308   1.521       .  S
N8           C12   1.356       .  A
N8            C9   1.356       .  A
N8          C382   1.451       .  S
C9           C10   1.380       .  A
C9           C43   1.460       .  S
C10          C11   1.370       .  A
C10          H13   1.083       .  S
C11          C12   1.388       .  A
C11          H14   1.084       .  S
C12         C272   1.461       .  S
N15          C16   1.355       .  A
N15        C1555   1.362       .  A
N15         C378   1.450       .  S
C16          C17   1.384       .  A
C16          C42   1.484       .  S
C17          C18   1.371       .  A
C17          H20   1.083       .  S
C18        C1555   1.385       .  A
C18        H1557   1.083       .  S
C19        N1551   1.361       .  A
C19        C1554   1.386       .  A
C19         C102   1.489       .  S
H21        C1554   1.083       .  S
N22          C23   1.357       .  A
N22        C1562   1.349   1_455  A
N22         C761   1.448   1_554  S
C23          C24   1.384       .  A
C23          C58   1.469       .  S
C24          C25   1.375       .  A
C24          H27   1.084       .  S
C25        C1562   1.378   1_455  A
C25        H1564   1.083   1_455  S
C26        N1558   1.349       .  A
C26        C1561   1.380       .  A
C26         C135   1.472       .  S
H28        C1561   1.083       .  S
O29         Ni35   1.922       .  S
O29          C50   1.275       .  A
O30         Ni53   1.883       .  S
O30          C39   1.257       .  A
O31         Ni35   1.919       .  S
O31         Ni53   1.892       .  S
O31         Ni47   1.890       .  S
O31          H54   0.966       .  S
C32         C242   1.459       .  S
C32          O49   1.266       .  A
C32          O41   1.277       .  A
O33         Ni52   1.927       .  S
O33          C39   1.275       .  A
O34         Ni52   1.914       .  S
O34          C36   1.267       .  A
Ni35         O38   1.917       .  S
Ni35         O40   1.924       .  S
C36          C89   1.480       .  S
C36          O46   1.275       .  A
O37         Ni53   1.898       .  S
O37          C43   1.270       .  A
O38          C43   1.276       .  A
C39         C369   1.461       .  S
O40          C42   1.267       .  A
O41         Ni52   1.918       .  S
C42          O48   1.268       .  A
H44          O45   0.967       .  S
O45         Ni53   1.899       .  S
O45         Ni47   1.900       .  S
O45         Ni52   1.914       .  S
O46         Ni47   1.925       .  S
Ni47         O51   1.885       .  S
Ni47         O49   1.899       .  S
O48         Ni53   1.910       .  S
C50         C373   1.460       .  S
C50          O51   1.259       .  A
O55         Ni61   1.937       .  S
O55          C76   1.281       .  A
O56         Ni79   1.879       .  S
O56          C65   1.257       .  A
O57         Ni61   1.899       .  S
O57         Ni79   1.893       .  S
O57         Ni73   1.899       .  S
O57          H80   0.967       .  S
C58          O75   1.276       .  A
C58          O67   1.278       .  A
O59         Ni78   1.937       .  S
O59          C65   1.277       .  A
O60         Ni78   1.939       .  S
O60          C62   1.280       .  A
Ni61         O64   1.912       .  S
Ni61         O66   1.946       .  S
C62          O72   1.271       .  A
O63         Ni79   1.916       .  S
O63          C69   1.274       .  A
O64          C69   1.278       .  A
C65         C370   1.457       .  S
O66          C68   1.277       .  A
O67         Ni78   1.913       .  S
C68         N248   1.466       .  S
C68          O74   1.276       .  A
C69          C82   1.457       .  S
H70          O71   0.967       .  S
O71         Ni79   1.904       .  S
O71         Ni73   1.901       .  S
O71         Ni78   1.899       .  S
O72         Ni73   1.948       .  S
Ni73         O77   1.871       .  S
Ni73         O75   1.929       .  S
O74         Ni79   1.952       .  S
C76         C758   1.455   1_554  S
C76          O77   1.257       .  A
N81          C85   1.350       .  A
N81          C82   1.352       .  A
N81         C365   1.443       .  S
C82          C83   1.376       .  A
C83          C84   1.368       .  A
C83          H86   1.081       .  S
C84          C85   1.380       .  A
C84          H87   1.084       .  S
C85         C124   1.473       .  S
N88          C92   1.353       .  A
N88          C89   1.360       .  A
N88         C366   1.443       .  S
C89          C90   1.385       .  A
C90          C91   1.370       .  A
C90          H93   1.083       .  S
C91          C92   1.386       .  A
C91          H94   1.083       .  S
C92         C108   1.487       .  S
O95        Ni101   1.946       .  S
O95         C116   1.280       .  A
O96        Ni119   1.871       .  S
O96         C105   1.253       .  A
O97        Ni101   1.918       .  S
O97        Ni119   1.887       .  S
O97        Ni113   1.883       .  S
O97         H120   0.967       .  S
C98         C155   1.476       .  S
C98         O115   1.269       .  A
C98         O107   1.283       .  A
O99        Ni118   1.963       .  S
O99         C105   1.283       .  A
O100       Ni118   1.921       .  S
O100        C102   1.269       .  A
Ni101       O104   1.937       .  S
Ni101       O106   1.942       .  S
C102        O112   1.279       .  A
O103       Ni119   1.883       .  S
O103        C109   1.267       .  A
O104        C109   1.279       .  A
C105        C361   1.472       .  S
O106        C108   1.272       .  A
O107       Ni118   1.952       .  S
C108        O114   1.263       .  A
C109        C162   1.467       .  S
H110        O111   0.967       .  S
O111       Ni119   1.881       .  S
O111       Ni113   1.890       .  S
O111       Ni118   1.911       .  S
O112       Ni113   1.936       .  S
Ni113       O117   1.896       .  S
Ni113       O115   1.878       .  S
O114       Ni119   1.897       .  S
C116        C357   1.477       .  S
C116        O117   1.266       .  A
O121       Ni127   1.949       .  S
O121        C142   1.276       .  A
O122       Ni145   1.873       .  S
O122        C131   1.251       .  A
O123       Ni127   1.923       .  S
O123       Ni145   1.901       .  S
O123       Ni139   1.900       .  S
O123        H146   0.967       .  S
C124        O141   1.270       .  A
C124        O133   1.289       .  A
O125       Ni144   1.973       .  S
O125        C131   1.283       .  A
O126       Ni144   1.903       .  S
O126        C128   1.269       .  A
Ni127       O130   1.951       .  S
Ni127       O132   1.916       .  S
C128        C169   1.474       .  S
C128        O138   1.277       .  A
O129       Ni145   1.905       .  S
O129        C135   1.270       .  A
O130        C135   1.284       .  A
C131        C746   1.472   1_554  S
O132        C134   1.264       .  A
O133       Ni144   1.958       .  S
C134        C148   1.454       .  S
C134        O140   1.260       .  A
H136        O137   0.966       .  S
O137       Ni145   1.892       .  S
O137       Ni139   1.878       .  S
O137       Ni144   1.896       .  S
O138       Ni139   1.939       .  S
Ni139       O143   1.878       .  S
Ni139       O141   1.892       .  S
O140       Ni145   1.890       .  S
C142        C358   1.474       .  S
C142        O143   1.259       .  A
N147        C151   1.339       .  A
N147        C148   1.347       .  A
N147        C354   1.427       .  S
C148        C149   1.385       .  A
C149        C150   1.370       .  A
C149        H152   1.083       .  S
C150        C151   1.381       .  A
C150        H153   1.079       .  S
C151        C208   1.454       .  S
N154        C158   1.365       .  A
N154        C155   1.367       .  A
N154        C189   1.455       .  S
C155        C156   1.378       .  A
C156        C157   1.362       .  A
C156        H159   1.083       .  S
C157        C158   1.391       .  A
C157        H160   1.080       .  S
C158        C353   1.479       .  S
N161        C165   1.362       .  A
N161        C930   1.363   1_545  A
N161        C178   1.448       .  S
C162        N929   1.360       .  A
C162        C163   1.380       .  A
C163        C164   1.364       .  A
C163        H166   1.083       .  S
C164        C933   1.385       .  A
C164        H167   1.078       .  S
C165        C932   1.385   1_545  A
C165        C349   1.482       .  S
N168        C172   1.353       .  A
N168        C937   1.353   1_545  A
N168        C734   1.449       .  S
C169        N936   1.352       .  A
C169        C170   1.382       .  A
C170        C939   1.368       .  A
C170        H173   1.080       .  S
C171        C172   1.378       .  A
C171        C938   1.365   1_545  A
C171        H174   1.083       .  S
C172        C214   1.452       .  S
O175       Ni181   1.920       .  S
O175        C196   1.276       .  A
O176       Ni199   1.920       .  S
O176        C185   1.274       .  A
O177       Ni181   1.895       .  S
O177       Ni199   1.899       .  S
O177       Ni193   1.912       .  S
O177        H200   0.967       .  S
C178        O195   1.279       .  A
C178        O187   1.270       .  A
O179       Ni198   1.902       .  S
O179        C185   1.267       .  A
O180       Ni198   1.913       .  S
O180        C182   1.278       .  A
Ni181       O184   1.919       .  S
Ni181       O186   1.923       .  S
C182        C235   1.512       .  S
C182        O192   1.283       .  A
O183       Ni199   1.946       .  S
O183        C189   1.285       .  A
O184        C189   1.273       .  A
C185        C342   1.465       .  S
O186        C188   1.268       .  A
O187       Ni198   1.917       .  S
C188       C1795   1.472       .  S
C188        O194   1.270       .  A
H190        O191   0.965       .  S
O191       Ni199   1.920       .  S
O191       Ni193   1.899       .  S
O191       Ni198   1.871       .  S
O192       Ni193   1.972       .  S
Ni193       O197   1.903       .  S
Ni193       O195   1.954       .  S
O194       Ni199   1.926       .  S
C196        C345   1.474       .  S
C196        O197   1.272       .  A
O201       Ni207   1.928       .  S
O201        C222   1.273       .  A
O202       Ni225   1.899       .  S
O202        C211   1.269       .  A
O203       Ni207   1.893       .  S
O203       Ni225   1.877       .  S
O203       Ni219   1.899       .  S
O203        H226   0.959       .  S
C204       C1802   1.479       .  S
C204        O221   1.274       .  A
C204        O213   1.268       .  A
O205       Ni224   1.900       .  S
O205        C211   1.268       .  A
O206       Ni224   1.895       .  S
O206        C208   1.263       .  A
Ni207       O210   1.928       .  S
Ni207       O212   1.902       .  S
C208        O218   1.277       .  A
O209       Ni225   1.939       .  S
O209        C215   1.281       .  A
O210        C215   1.278       .  A
C211        C341   1.465       .  S
O212        C214   1.268       .  A
O213       Ni224   1.931       .  S
C214        O220   1.274       .  A
C215        C231   1.478       .  S
H216        O217   0.966       .  S
O217       Ni225   1.934       .  S
O217       Ni219   1.903       .  S
O217       Ni224   1.923       .  S
O218       Ni219   1.931       .  S
Ni219       O223   1.901       .  S
Ni219       O221   1.911       .  S
O220       Ni225   1.918       .  S
C222        C730   1.468   1_554  S
C222        O223   1.269       .  A
N227        C231   1.354       .  A
N227        C228   1.380       .  A
N227        C337   1.471       .  S
C228        C229   1.389       .  A
C228        C298   1.513       .  S
C229        C230   1.375       .  A
C229        H232   1.083       .  S
C230        C231   1.370       .  A
C230        H233   1.074       .  S
N234        C238   1.360       .  A
N234        C235   1.380       .  A
N234        C338   1.473       .  S
C235        C236   1.389       .  A
C236        C237   1.355       .  A
C236        H239   1.083       .  S
C237        C238   1.376       .  A
C237        H240   1.081       .  S
C238        C282   1.473       .  S
N241        C245   1.348   1_565  A
N241       C1010   1.350       .  A
N241       C1101   1.442       .  S
C242       N1009   1.349       .  A
C242        C243   1.378       .  A
C243       C1012   1.377       .  A
C243        H246   1.081       .  S
C244        C245   1.385       .  A
C244       C1011   1.370   1_545  A
C244        H247   1.083       .  S
C245        C283   1.452       .  S
N248        C249   1.369   1_554  A
N248       C1020   1.376       .  A
C249       C1018   1.385       .  A
C249        C718   1.492       .  S
C250        C251   1.349   1_556  A
C250       C1017   1.372       .  A
C250        H637   1.079       .  S
C251        C252   1.389       .  A
C251        H254   1.083       .  S
C252       N1016   1.394       .  A
C252        C302   1.522       .  S
H253        C634   1.080       .  S
N255        C259   1.353       .  A
N255        C256   1.345       .  A
N255        C329   1.433       .  S
C256        C257   1.386       .  A
C256        C276   1.472       .  S
C257        C258   1.374       .  A
C257        H260   1.083       .  S
C258        C259   1.382       .  A
C258        H261   1.083   1_455  S
C259       C1724   1.470   1_455  S
N262        C266   1.373       .  A
N262        C263   1.368   1_554  A
N262        C309   1.464       .  S
C263        C264   1.388       .  A
C263        C714   1.495       .  S
C264       C1801   1.361       .  A
C264        H651   1.081       .  S
C265       C1800   1.363       .  A
C265       C1802   1.376   1_556  A
C265        H268   1.083       .  S
C266       C1801   1.379   1_554  A
C266       C1740   1.492   1_455  S
H267        C648   1.082       .  S
O269       Ni275   1.929       .  S
O269        C290   1.273       .  A
O270       Ni293   1.923       .  S
O270        C279   1.275       .  A
O271       Ni275   1.872       .  S
O271       Ni293   1.924       .  S
O271       Ni287   1.888       .  S
O271        H294   0.966       .  S
C272        O289   1.270       .  A
C272        O281   1.272       .  A
O273       Ni292   1.914       .  S
O273        C279   1.270       .  A
O274       Ni292   1.939       .  S
O274        C276   1.273       .  A
Ni275       O278   1.921       .  S
Ni275       O280   1.892       .  S
C276        O286   1.260       .  A
O277       Ni293   1.897       .  S
O277        C283   1.270       .  A
O278        C283   1.281       .  A
C279        C325   1.480       .  S
O280        C282   1.258       .  A
O281       Ni292   1.905       .  S
C282        O288   1.279       .  A
H284        O285   0.967       .  S
O285       Ni293   1.890       .  S
O285       Ni287   1.902       .  S
O285       Ni292   1.896       .  S
O286       Ni287   1.892       .  S
Ni287       O291   1.891       .  S
Ni287       O289   1.915       .  S
O288       Ni293   1.971       .  S
C290        C321   1.473       .  S
C290        O291   1.260       .  A
O295       Ni301   1.951       .  S
O295        C316   1.282       .  A
O296       Ni319   1.907       .  S
O296        C305   1.279       .  A
O297       Ni301   1.884       .  S
O297       Ni319   1.893       .  S
O297       Ni313   1.930       .  S
O297        H320   0.967       .  S
C298        O315   1.298       .  A
C298        O307   1.277       .  A
O299       Ni318   1.929       .  S
O299        C305   1.279       .  A
O300       Ni318   1.941       .  S
O300        C302   1.277       .  A
Ni301       O304   1.945       .  S
Ni301       O306   1.913       .  S
C302        O312   1.278       .  A
O303       Ni319   1.963       .  S
O303        C309   1.292       .  A
O304        C309   1.280       .  A
C305        C710   1.475   1_554  S
O306        C308   1.278       .  A
O307       Ni318   1.929       .  S
C308        O314   1.284       .  A
H310        O311   0.966       .  S
O311       Ni319   1.929       .  S
O311       Ni313   1.877       .  S
O311       Ni318   1.880       .  S
O312       Ni313   1.984       .  S
Ni313       O317   1.882       .  S
Ni313       O315   1.987       .  S
O314       Ni319   1.985       .  S
C316        C322   1.467       .  S
C316        O317   1.267       .  A
C321        C322   1.341       .  D
C321        H323   1.087       .  S
C322        H324   1.085       .  S
C325        C326   1.355       .  D
C325        H327   1.087       .  S
C326        C689   1.477       .  S
C326        H328   1.087       .  S
C329        C330   1.360       .  D
C329        H331   1.082       .  S
C330        C647   1.490       .  S
C330        H332   1.086       .  S
C333       N1009   1.436       .  S
C333        C334   1.347       .  D
C333        H335   1.085       .  S
C334        C633   1.484       .  S
C334       H1104   1.087       .  S
H336       C1102   1.086       .  S
C337        C338   1.354       .  D
C337        H339   1.090       .  S
C338        H340   1.089       .  S
C341        C342   1.354       .  D
C341        H343   1.086       .  S
C342        H344   1.087       .  S
C345        C346   1.348       .  D
C345        H347   1.087       .  S
C346        C606   1.466       .  S
C346        H348   1.087       .  S
C349        C350   1.360       .  D
C349        H351   1.086       .  S
C350        N552   1.448       .  S
C350        H736   1.088   1_545  S
H352        C734   1.088   1_566  S
C353        C354   1.352       .  D
C353        H355   1.081       .  S
C354        H356   1.081       .  S
C357        C358   1.342       .  D
C357        H359   1.087       .  S
C358        H360   1.086       .  S
C361        C362   1.328       .  D
C361        H363   1.088       .  S
C362        C515   1.466       .  S
C362        H364   1.086       .  S
C365        C366   1.357       .  D
C365        H367   1.085       .  S
C366        H368   1.086       .  S
C369        C370   1.332       .  D
C369        H371   1.087       .  S
C370        H372   1.087       .  S
C373        C374   1.333       .  D
C373        H375   1.087       .  S
C374        C460   1.459       .  S
C374        H376   1.088       .  S
C377        N406   1.450       .  S
C377        C378   1.358       .  D
C377        H379   1.086       .  S
C378        H380   1.085       .  S
C381        C382   1.358       .  D
C381        H383   1.086       .  S
C382        H384   1.086       .  S
N385        C389   1.376       .  A
N385        C386   1.372       .  A
N385        C446   1.462       .  S
C386        C387   1.376       .  A
C386        C765   1.495       .  S
C387        C388   1.358       .  A
C387        H390   1.072       .  S
C388        C389   1.387       .  A
C388        H391   1.083       .  S
C389        C692   1.516       .  S
N392        C396   1.357       .  A
N392        C393   1.358       .  A
N392        C766   1.450       .  S
C393        C394   1.380       .  A
C393        C427   1.468       .  S
C394        C395   1.372       .  A
C394        H397   1.082       .  S
C395        C396   1.387       .  A
C395        H398   1.084       .  S
C396        C656   1.460       .  S
N399       C1939   1.359       .  A
N399        C400   1.352       .  A
N399        C762   1.447       .  S
C400        C401   1.385       .  A
C400        C426   1.482       .  S
C401        C402   1.372       .  A
C401        H404   1.083       .  S
C402       C1939   1.386       .  A
C402       H1941   1.083       .  S
C403       N1935   1.360       .  A
C403       C1938   1.385       .  A
C403        C486   1.488       .  S
H405       C1938   1.083       .  S
N406       C1946   1.349   1_455  A
N406        C407   1.358       .  A
C407        C408   1.384       .  A
C407        C442   1.464       .  S
C408        C409   1.374       .  A
C408        H411   1.084       .  S
C409       C1946   1.378   1_455  A
C409       H1948   1.083   1_455  S
C410       N1942   1.350       .  A
C410       C1945   1.379       .  A
C410        C519   1.472       .  S
H412       C1945   1.083       .  S
O413       Ni419   1.931       .  S
O413        C434   1.277       .  A
O414       Ni437   1.884       .  S
O414        C423   1.257       .  A
O415       Ni419   1.915       .  S
O415       Ni437   1.891       .  S
O415       Ni431   1.887       .  S
O415        H438   0.967       .  S
C416        C626   1.462       .  S
C416        O433   1.265       .  A
C416        O425   1.275       .  A
O417       Ni436   1.922       .  S
O417        C423   1.274       .  A
O418       Ni436   1.917       .  S
O418        C420   1.267       .  A
Ni419       O422   1.924       .  S
Ni419       O424   1.925       .  S
C420        C473   1.474       .  S
C420        O430   1.268       .  A
O421       Ni437   1.905       .  S
O421        C427   1.271       .  A
O422        C427   1.278       .  A
C423        C753   1.462       .  S
O424        C426   1.268       .  A
O425       Ni436   1.917       .  S
C426        O432   1.267       .  A
H428        O429   0.966       .  S
O429       Ni437   1.905       .  S
O429       Ni431   1.903       .  S
O429       Ni436   1.917       .  S
O430       Ni431   1.910       .  S
Ni431       O435   1.873       .  S
Ni431       O433   1.904       .  S
O432       Ni437   1.909       .  S
C434        C757   1.456       .  S
C434        O435   1.252       .  A
O439       Ni445   1.936       .  S
O439        C460   1.278       .  A
O440       Ni463   1.883       .  S
O440        C449   1.258       .  A
O441       Ni445   1.904       .  S
O441       Ni463   1.902       .  S
O441       Ni457   1.900       .  S
O441        H464   0.966       .  S
C442        O459   1.275       .  A
C442        O451   1.277       .  A
O443       Ni462   1.934       .  S
O443        C449   1.276       .  A
O444       Ni462   1.930       .  S
O444        C446   1.278       .  A
Ni445       O448   1.910       .  S
Ni445       O450   1.940       .  S
C446        O456   1.273       .  A
O447       Ni463   1.907       .  S
O447        C453   1.270       .  A
O448        C453   1.277       .  A
C449        C754   1.459       .  S
O450        C452   1.276       .  A
O451       Ni462   1.906       .  S
C452        N632   1.461       .  S
C452        O458   1.272       .  A
C453        C466   1.451       .  S
H454        O455   0.966       .  S
O455       Ni463   1.896       .  S
O455       Ni457   1.903       .  S
O455       Ni462   1.894       .  S
O456       Ni457   1.955       .  S
Ni457       O461   1.880       .  S
Ni457       O459   1.925       .  S
O458       Ni463   1.944       .  S
C460        O461   1.260       .  A
N465        C469   1.345       .  A
N465        C466   1.352       .  A
N465        C749   1.437       .  S
C466        C467   1.374       .  A
C467        C468   1.367       .  A
C467        H470   1.082       .  S
C468        C469   1.379       .  A
C468        H471   1.084       .  S
C469        C508   1.466       .  S
N472        C476   1.353       .  A
N472        C473   1.355       .  A
N472        C750   1.436       .  S
C473        C474   1.384       .  A
C474        C475   1.369       .  A
C474        H477   1.083       .  S
C475        C476   1.386       .  A
C475        H478   1.083       .  S
C476        C492   1.486       .  S
O479       Ni485   1.958       .  S
O479        C500   1.283       .  A
O480       Ni503   1.877       .  S
O480        C489   1.255       .  A
O481       Ni485   1.915       .  S
O481       Ni503   1.886       .  S
O481       Ni497   1.882       .  S
O481        H504   0.966       .  S
C482        C539   1.478       .  S
C482        O499   1.269       .  A
C482        O491   1.283       .  A
O483       Ni502   1.964       .  S
O483        C489   1.283       .  A
O484       Ni502   1.928       .  S
O484        C486   1.272       .  A
Ni485       O488   1.948       .  S
Ni485       O490   1.946       .  S
C486        O496   1.275       .  A
O487       Ni503   1.883       .  S
O487        C493   1.269       .  A
O488        C493   1.281       .  A
C489        C745   1.476       .  S
O490        C492   1.274       .  A
O491       Ni502   1.953       .  S
C492        O498   1.263       .  A
C493        C546   1.477       .  S
H494        O495   0.967       .  S
O495       Ni503   1.886       .  S
O495       Ni497   1.890       .  S
O495       Ni502   1.913       .  S
O496       Ni497   1.925       .  S
Ni497       O501   1.893       .  S
Ni497       O499   1.880       .  S
O498       Ni503   1.896       .  S
C500        C741   1.481       .  S
C500        O501   1.265       .  A
O505       Ni511   1.958       .  S
O505        C526   1.279       .  A
O506       Ni529   1.871       .  S
O506        C515   1.250       .  A
O507       Ni511   1.917       .  S
O507       Ni529   1.898       .  S
O507       Ni523   1.893       .  S
O507        H530   0.967       .  S
C508        O525   1.268       .  A
C508        O517   1.289       .  A
O509       Ni528   1.967       .  S
O509        C515   1.281       .  A
O510       Ni528   1.897       .  S
O510        C512   1.267       .  A
Ni511       O514   1.959       .  S
Ni511       O516   1.918       .  S
C512        C553   1.469       .  S
C512        O522   1.278       .  A
O513       Ni529   1.902       .  S
O513        C519   1.271       .  A
O514        C519   1.288       .  A
O516        C518   1.263       .  A
O517       Ni528   1.954       .  S
C518        C532   1.454       .  S
C518        O524   1.259       .  A
H520        O521   0.965       .  S
O521       Ni529   1.889       .  S
O521       Ni523   1.875       .  S
O521       Ni528   1.893       .  S
O522       Ni523   1.938       .  S
Ni523       O527   1.876       .  S
Ni523       O525   1.885       .  S
O524       Ni529   1.891       .  S
C526        C742   1.479       .  S
C526        O527   1.259       .  A
N531        C535   1.338       .  A
N531        C532   1.348       .  A
N531        C738   1.427       .  S
C532        C533   1.385       .  A
C533        C534   1.370       .  A
C533        H536   1.083       .  S
C534        C535   1.381       .  A
C534        H537   1.079       .  S
C535        C592   1.453       .  S
N538        C542   1.365       .  A
N538        C539   1.365       .  A
N538        C573   1.452       .  S
C539        C540   1.379       .  A
C540        C541   1.362       .  A
C540        H543   1.083       .  S
C541        C542   1.390       .  A
C541        H544   1.080       .  S
C542        C737   1.478       .  S
N545        C549   1.361       .  A
N545       C1314   1.365   1_545  A
N545        C562   1.447       .  S
C546       N1313   1.362       .  A
C546        C547   1.383       .  A
C547        C548   1.363       .  A
C547        H550   1.083       .  S
C548       C1317   1.383       .  A
C548        H551   1.078       .  S
C549       C1316   1.383   1_545  A
C549        C733   1.483       .  S
N552        C556   1.349       .  A
N552       C1321   1.353   1_545  A
C553       N1320   1.349       .  A
C553        C554   1.385       .  A
C554       C1323   1.369       .  A
C554        H557   1.081       .  S
C555       C1322   1.365   1_545  A
C555        C556   1.377       .  A
C555        H558   1.082       .  S
C556        C598   1.445       .  S
O559       Ni565   1.927       .  S
O559        C580   1.279       .  A
O560       Ni583   1.911       .  S
O560        C569   1.271       .  A
O561       Ni565   1.896       .  S
O561       Ni583   1.891       .  S
O561       Ni577   1.905       .  S
O561        H584   0.967       .  S
C562        O579   1.278       .  A
C562        O571   1.269       .  A
O563       Ni582   1.905       .  S
O563        C569   1.267       .  A
O564       Ni582   1.905       .  S
O564        C566   1.276       .  A
Ni565       O568   1.931       .  S
Ni565       O570   1.938       .  S
C566        C619   1.509       .  S
C566        O576   1.286       .  A
O567       Ni583   1.940       .  S
O567        C573   1.285       .  A
O568        C573   1.278       .  A
C569        C726   1.462       .  S
O570        C572   1.270       .  A
O571       Ni582   1.917       .  S
C572       C2179   1.485       .  S
C572        O578   1.267       .  A
H574        O575   0.965       .  S
O575       Ni583   1.922       .  S
O575       Ni577   1.902       .  S
O575       Ni582   1.873       .  S
O576       Ni577   1.977       .  S
Ni577       O581   1.904       .  S
Ni577       O579   1.949       .  S
O578       Ni583   1.920       .  S
C580        C729   1.473       .  S
C580        O581   1.274       .  A
O585       Ni591   1.930       .  S
O585        C606   1.274       .  A
O586       Ni609   1.892       .  S
O586        C595   1.267       .  A
O587       Ni591   1.891       .  S
O587       Ni609   1.872       .  S
O587       Ni603   1.897       .  S
O587        H610   0.960       .  S
C588       C2186   1.487       .  S
C588        O605   1.276       .  A
C588        O597   1.273       .  A
O589       Ni608   1.911       .  S
O589        C595   1.271       .  A
O590       Ni608   1.898       .  S
O590        C592   1.263       .  A
Ni591       O594   1.929       .  S
Ni591       O596   1.902       .  S
C592        O602   1.275       .  A
O593       Ni609   1.940       .  S
O593        C599   1.281       .  A
O594        C599   1.278       .  A
C595        C725   1.465       .  S
O596        C598   1.268       .  A
O597       Ni608   1.947       .  S
C598        O604   1.272       .  A
C599        C615   1.477       .  S
H600        O601   0.966       .  S
O601       Ni609   1.933       .  S
O601       Ni603   1.897       .  S
O601       Ni608   1.924       .  S
O602       Ni603   1.925       .  S
Ni603       O607   1.900       .  S
Ni603       O605   1.907       .  S
O604       Ni609   1.908       .  S
C606        O607   1.269       .  A
N611        C615   1.354       .  A
N611        C612   1.381       .  A
N611        C721   1.470       .  S
C612        C613   1.389       .  A
C612        C682   1.512       .  S
C613        C614   1.375       .  A
C613        H616   1.083       .  S
C614        C615   1.370       .  A
C614        H617   1.074       .  S
N618        C622   1.358       .  A
N618        C619   1.378       .  A
N618        C722   1.473       .  S
C619        C620   1.389       .  A
C620        C621   1.352       .  A
C620        H623   1.083       .  S
C621        C622   1.378       .  A
C621        H624   1.081       .  S
C622        C666   1.468       .  S
N625        C629   1.347   1_565  A
N625       C1394   1.350       .  A
N625       C1485   1.440       .  S
C626       N1393   1.351       .  A
C626        C627   1.378       .  A
C627       C1396   1.373       .  A
C627        H630   1.083       .  S
C628       C1395   1.369   1_545  A
C628        C629   1.383       .  A
C628        H631   1.083       .  S
C629        C667   1.453       .  S
N632       C1404   1.373       .  A
N632        C633   1.364       .  A
C633       C1402   1.383       .  A
C634       C1401   1.370   1_545  A
C634        C635   1.346       .  A
C635        C636   1.392       .  A
C635        H638   1.083       .  S
C636       N1400   1.394   1_545  A
C636        C686   1.529       .  S
N639        C643   1.355       .  A
N639        C640   1.346       .  A
N639        C713   1.436       .  S
C640        C641   1.388       .  A
C640        C660   1.474       .  S
C641        C642   1.374       .  A
C641        H644   1.083       .  S
C642        C643   1.381       .  A
C642        H645   1.083   1_455  S
C643       C2108   1.474   1_455  S
N646        C650   1.375       .  A
N646        C647   1.369       .  A
N646        C693   1.467       .  S
C647        C648   1.388       .  A
C648       C2185   1.359       .  A
C649       C2184   1.360       .  A
C649       C2186   1.380       .  A
C649        H652   1.083       .  S
C650       C2185   1.379       .  A
C650       C2124   1.489   1_455  S
O653       Ni659   1.928       .  S
O653        C674   1.273       .  A
O654       Ni677   1.924       .  S
O654        C663   1.274       .  A
O655       Ni659   1.874       .  S
O655       Ni677   1.932       .  S
O655       Ni671   1.895       .  S
O655        H678   0.967       .  S
C656        O673   1.271       .  A
C656        O665   1.270       .  A
O657       Ni676   1.908       .  S
O657        C663   1.268       .  A
O658       Ni676   1.939       .  S
O658        C660   1.274       .  A
Ni659       O662   1.925       .  S
Ni659       O664   1.888       .  S
C660        O670   1.260       .  A
O661       Ni677   1.895       .  S
O661        C667   1.269       .  A
O662        C667   1.279       .  A
C663        C709   1.477       .  S
O664        C666   1.255       .  A
O665       Ni676   1.899       .  S
C666        O672   1.276       .  A
H668        O669   0.966       .  S
O669       Ni677   1.888       .  S
O669       Ni671   1.904       .  S
O669       Ni676   1.895       .  S
O670       Ni671   1.889       .  S
Ni671       O675   1.897       .  S
Ni671       O673   1.922       .  S
O672       Ni677   1.968       .  S
C674        C705   1.477       .  S
C674        O675   1.263       .  A
O679       Ni685   1.953       .  S
O679        C700   1.282       .  A
O680       Ni703   1.907       .  S
O680        C689   1.278       .  A
O681       Ni685   1.895       .  S
O681       Ni703   1.901       .  S
O681       Ni697   1.940       .  S
O681        H704   0.966       .  S
C682        O699   1.299       .  A
C682        O691   1.277       .  A
O683       Ni702   1.929       .  S
O683        C689   1.278       .  A
O684       Ni702   1.933       .  S
O684        C686   1.279       .  A
Ni685       O688   1.953       .  S
Ni685       O690   1.909       .  S
C686        O696   1.280       .  A
O687       Ni703   1.959       .  S
O687        C693   1.290       .  A
O688        C693   1.281       .  A
O690        C692   1.277       .  A
O691       Ni702   1.926       .  S
C692        O698   1.283       .  A
H694        O695   0.966       .  S
O695       Ni703   1.923       .  S
O695       Ni697   1.876       .  S
O695       Ni702   1.873       .  S
O696       Ni697   1.987       .  S
Ni697       O701   1.885       .  S
Ni697       O699   1.988       .  S
O698       Ni703   1.982       .  S
C700        C706   1.470       .  S
C700        O701   1.267       .  A
C705        C706   1.343       .  D
C705        H707   1.087       .  S
C706        H708   1.084       .  S
C709        C710   1.354       .  D
C709        H711   1.086       .  S
C710        H712   1.087       .  S
C713        C714   1.362       .  D
C713        H715   1.081       .  S
C714        H716   1.086       .  S
C717       N1393   1.438       .  S
C717        C718   1.353       .  D
C717        H719   1.084       .  S
C718       H1488   1.086       .  S
H720       C1486   1.086       .  S
C721        C722   1.353       .  D
C721        H723   1.090       .  S
C722        H724   1.089       .  S
C725        C726   1.349       .  D
C725        H727   1.086       .  S
C726        H728   1.087       .  S
C729        C730   1.349       .  D
C729        H731   1.087       .  S
C730        H732   1.087       .  S
C733        C734   1.360   1_556  D
C733        H735   1.086       .  S
C737        C738   1.352       .  D
C737        H739   1.082       .  S
C738        H740   1.082       .  S
C741        C742   1.342       .  D
C741        H743   1.087       .  S
C742        H744   1.086       .  S
C745        C746   1.331       .  D
C745        H747   1.087       .  S
C746        H748   1.087       .  S
C749        C750   1.354       .  D
C749        H751   1.086       .  S
C750        H752   1.086       .  S
C753        C754   1.333       .  D
C753        H755   1.087       .  S
C754        H756   1.087       .  S
C757        C758   1.326       .  D
C757        H759   1.088       .  S
C758        H760   1.089       .  S
C761        C762   1.356       .  D
C761        H763   1.086       .  S
C762        H764   1.085       .  S
C765        C766   1.360       .  D
C765        H767   1.086       .  S
C766        H768   1.086       .  S
N769        C773   1.374       .  A
N769        C770   1.364       .  A
N769        C830   1.458       .  S
C770        C771   1.377       .  A
C770       C1149   1.490       .  S
C771        C772   1.358       .  A
C771        H774   1.073       .  S
C772        C773   1.388       .  A
C772        H775   1.083       .  S
C773       C1076   1.519       .  S
N776        C780   1.354       .  A
N776        C777   1.354       .  A
N776       C1150   1.447       .  S
C777        C778   1.382       .  A
C777        C811   1.462       .  S
C778        C779   1.373       .  A
C778        H781   1.083       .  S
C779        C780   1.387       .  A
C779        H782   1.084       .  S
C780       C1040   1.465       .  S
N783       C2323   1.353       .  A
N783        C784   1.350       .  A
N783       C1146   1.433       .  S
C784        C785   1.388       .  A
C784        C810   1.483       .  S
C785        C786   1.375       .  A
C785        H788   1.083       .  S
C786       C2323   1.384       .  A
C786       H2325   1.083       .  S
C787       N2319   1.358       .  A
C787       C2322   1.385       .  A
C787        C870   1.483       .  S
H789       C2322   1.083       .  S
N790       C2330   1.346   1_455  A
N790        C791   1.355       .  A
N790       C1529   1.445   1_554  S
C791        C792   1.385       .  A
C791        C826   1.465       .  S
C792        C793   1.374       .  A
C792        H795   1.084       .  S
C793       C2330   1.378   1_455  A
C793       H2332   1.083   1_455  S
C794       N2326   1.352       .  A
C794       C2329   1.380       .  A
C794        C903   1.474       .  S
H796       C2329   1.083       .  S
O797       Ni803   1.930       .  S
O797        C818   1.278       .  A
O798       Ni821   1.867       .  S
O798        C807   1.251       .  A
O799       Ni803   1.914       .  S
O799       Ni821   1.884       .  S
O799       Ni815   1.881       .  S
O799        H822   0.966       .  S
C800       C1010   1.452       .  S
C800        O817   1.263       .  A
C800        O809   1.280       .  A
O801       Ni820   1.933       .  S
O801        C807   1.277       .  A
O802       Ni820   1.910       .  S
O802        C804   1.267       .  A
Ni803       O806   1.917       .  S
Ni803       O808   1.933       .  S
C804        C857   1.480       .  S
C804        O814   1.275       .  A
O805       Ni821   1.905       .  S
O805        C811   1.273       .  A
O806        C811   1.279       .  A
C807       C1137   1.454       .  S
O808        C810   1.269       .  A
O809       Ni820   1.924       .  S
C810        O816   1.261       .  A
H812        O813   0.966       .  S
O813       Ni821   1.894       .  S
O813       Ni815   1.892       .  S
O813       Ni820   1.907       .  S
O814       Ni815   1.925       .  S
Ni815       O819   1.874       .  S
Ni815       O817   1.886       .  S
O816       Ni821   1.897       .  S
C818       C1141   1.457       .  S
C818        O819   1.255       .  A
O823       Ni829   1.958       .  S
O823        C844   1.284       .  A
O824       Ni847   1.864       .  S
O824        C833   1.251       .  A
O825       Ni829   1.880       .  S
O825       Ni847   1.889       .  S
O825       Ni841   1.888       .  S
O825        H848   0.966       .  S
C826        O843   1.278       .  A
C826        O835   1.279       .  A
O827       Ni846   1.940       .  S
O827        C833   1.279       .  A
O828       Ni846   1.943       .  S
O828        C830   1.280       .  A
Ni829       O832   1.916       .  S
Ni829       O834   1.939       .  S
C830        O840   1.264       .  A
O831       Ni847   1.919       .  S
O831        C837   1.277       .  A
O832        C837   1.281       .  A
C833       C1138   1.447       .  S
O834        C836   1.282       .  A
O835       Ni846   1.911       .  S
C836       N1016   1.464   1_565  S
C836        O842   1.269       .  A
C837        C850   1.458       .  S
H838        O839   0.966       .  S
O839       Ni847   1.898       .  S
O839       Ni841   1.895       .  S
O839       Ni846   1.895       .  S
O840       Ni841   1.931       .  S
Ni841       O845   1.861       .  S
Ni841       O843   1.929       .  S
O842       Ni847   1.949       .  S
C844       C1526   1.455   1_554  S
C844        O845   1.252       .  A
N849        C853   1.351       .  A
N849        C850   1.353       .  A
N849       C1133   1.444       .  S
C850        C851   1.377       .  A
C851        C852   1.372       .  A
C851        H854   1.083       .  S
C852        C853   1.381       .  A
C852        H855   1.083       .  S
C853        C892   1.477       .  S
N856        C860   1.352       .  A
N856        C857   1.359       .  A
N856       C1134   1.444       .  S
C857        C858   1.385       .  A
C858        C859   1.371       .  A
C858        H861   1.083       .  S
C859        C860   1.385       .  A
C859        H862   1.083       .  S
C860        C876   1.486       .  S
O863       Ni869   1.945       .  S
O863        C884   1.279       .  A
O864       Ni887   1.868       .  S
O864        C873   1.250       .  A
O865       Ni869   1.922       .  S
O865       Ni887   1.888       .  S
O865       Ni881   1.881       .  S
O865        H888   0.966       .  S
C866        C923   1.470       .  S
C866        O883   1.267       .  A
C866        O875   1.282       .  A
O867       Ni886   1.963       .  S
O867        C873   1.282       .  A
O868       Ni886   1.919       .  S
O868        C870   1.270       .  A
Ni869       O872   1.939       .  S
Ni869       O874   1.938       .  S
C870        O880   1.276       .  A
O871       Ni887   1.878       .  S
O871        C877   1.265       .  A
O872        C877   1.279       .  A
C873       C1129   1.471       .  S
O874        C876   1.271       .  A
O875       Ni886   1.950       .  S
C876        O882   1.262       .  A
C877        C930   1.468       .  S
H878        O879   0.967       .  S
O879       Ni887   1.880       .  S
O879       Ni881   1.893       .  S
O879       Ni886   1.916       .  S
O880       Ni881   1.928       .  S
Ni881       O885   1.896       .  S
Ni881       O883   1.873       .  S
O882       Ni887   1.895       .  S
C884       C1125   1.476       .  S
C884        O885   1.265       .  A
O889       Ni895   1.947       .  S
O889        C910   1.278       .  A
O890       Ni913   1.870       .  S
O890        C899   1.252       .  A
O891       Ni895   1.914       .  S
O891       Ni913   1.895       .  S
O891       Ni907   1.906       .  S
O891        H914   0.966       .  S
C892        O909   1.274       .  A
C892        O901   1.290       .  A
O893       Ni912   1.965       .  S
O893        C899   1.281       .  A
O894       Ni912   1.898       .  S
O894        C896   1.269       .  A
Ni895       O898   1.944       .  S
Ni895       O900   1.922       .  S
C896        C937   1.468       .  S
C896        O906   1.276       .  A
O897       Ni913   1.915       .  S
O897        C903   1.273       .  A
O898        C903   1.283       .  A
C899       C1514   1.468   1_554  S
O900        C902   1.267       .  A
O901       Ni912   1.957       .  S
C902        C916   1.458       .  S
C902        O908   1.260       .  A
H904        O905   0.967       .  S
O905       Ni913   1.891       .  S
O905       Ni907   1.872       .  S
O905       Ni912   1.888       .  S
O906       Ni907   1.936       .  S
Ni907       O911   1.883       .  S
Ni907       O909   1.906       .  S
O908       Ni913   1.885       .  S
C910       C1126   1.476       .  S
C910        O911   1.262       .  A
N915        C919   1.339       .  A
N915        C916   1.346       .  A
N915       C1122   1.426       .  S
C916        C917   1.384       .  A
C917        C918   1.371       .  A
C917        H920   1.083       .  S
C918        C919   1.381       .  A
C918        H921   1.081       .  S
C919        C976   1.449       .  S
N922        C926   1.366       .  A
N922        C923   1.366       .  A
N922        C957   1.457       .  S
C923        C924   1.379       .  A
C924        C925   1.361       .  A
C924        H927   1.083       .  S
C925        C926   1.390       .  A
C925        H928   1.081       .  S
C926       C1121   1.473       .  S
N929        C933   1.355       .  A
N929        C946   1.441       .  S
C930        C931   1.378       .  A
C931        C932   1.360       .  A
C931        H934   1.083       .  S
C932        H935   1.077       .  S
C933       C1117   1.476       .  S
N936        C940   1.355       .  A
N936       C1502   1.447   1_554  S
C937        C938   1.384       .  A
C938        H941   1.081       .  S
C939        C940   1.380       .  A
C939        H942   1.083       .  S
C940        C982   1.462       .  S
O943       Ni949   1.929       .  S
O943        C964   1.278       .  A
O944       Ni967   1.928       .  S
O944        C953   1.277       .  A
O945       Ni949   1.896       .  S
O945       Ni967   1.900       .  S
O945       Ni961   1.912       .  S
O945        H968   0.967       .  S
C946        O963   1.278       .  A
C946        O955   1.269       .  A
O947       Ni966   1.894       .  S
O947        C953   1.265       .  A
O948       Ni966   1.909       .  S
O948        C950   1.274       .  A
Ni949       O952   1.927       .  S
Ni949       O954   1.922       .  S
C950       C1003   1.503       .  S
C950        O960   1.285       .  A
O951       Ni967   1.948       .  S
O951        C957   1.286       .  A
O952        C957   1.276       .  A
C953       C1110   1.467       .  S
O954        C956   1.268       .  A
O955       Ni966   1.912       .  S
C956       C2563   1.475       .  S
C956        O962   1.273       .  A
H958        O959   0.966       .  S
O959       Ni967   1.920       .  S
O959       Ni961   1.893       .  S
O959       Ni966   1.870       .  S
O960       Ni961   1.976       .  S
Ni961       O965   1.905       .  S
Ni961       O963   1.946       .  S
O962       Ni967   1.931       .  S
C964       C1113   1.478       .  S
C964        O965   1.273       .  A
O969       Ni975   1.932       .  S
O969        C990   1.274       .  A
O970       Ni993   1.896       .  S
O970        C979   1.272       .  A
O971       Ni975   1.903       .  S
O971       Ni993   1.877       .  S
O971       Ni987   1.901       .  S
O971        H994   0.960       .  S
C972       C2570   1.490       .  S
C972        O989   1.270       .  A
C972        O981   1.271       .  A
O973       Ni992   1.905       .  S
O973        C979   1.269       .  A
O974       Ni992   1.896       .  S
O974        C976   1.262       .  A
Ni975       O978   1.936       .  S
Ni975       O980   1.907       .  S
C976        O986   1.274       .  A
O977       Ni993   1.954       .  S
O977        C983   1.287       .  A
O978        C983   1.279       .  A
C979       C1109   1.464       .  S
O980        C982   1.269       .  A
O981       Ni992   1.950       .  S
C982        O988   1.276       .  A
C983        C999   1.495       .  S
H984        O985   0.966       .  S
O985       Ni993   1.944       .  S
O985       Ni987   1.895       .  S
O985       Ni992   1.931       .  S
O986       Ni987   1.923       .  S
Ni987       O991   1.882       .  S
Ni987       O989   1.902       .  S
O988       Ni993   1.928       .  S
C990       C1498   1.464   1_554  S
C990        O991   1.259       .  A
N995        C999   1.366       .  A
N995        C996   1.378       .  A
N995       C1105   1.472       .  S
C996        C997   1.379       .  A
C996       C1066   1.508       .  S
C997        C998   1.378       .  A
C997       H1000   1.081       .  S
C998        C999   1.376       .  A
C998       H1001   1.076       .  S
N1002      C1006   1.366       .  A
N1002      C1003   1.375       .  A
N1002      C1106   1.475       .  S
C1003      C1004   1.384       .  A
C1004      C1005   1.354       .  A
C1004      H1007   1.082       .  S
C1005      C1006   1.379       .  A
C1005      H1008   1.081       .  S
C1006      C1050   1.481       .  S
N1009      C1013   1.352       .  A
C1010      C1011   1.380       .  A
C1011      H1014   1.083       .  S
C1012      C1013   1.384       .  A
C1012      H1015   1.082       .  S
C1013      C1051   1.471       .  S
N1016      C1017   1.368   1_554  A
C1017      C1486   1.481   1_545  S
C1018      C1019   1.360   1_556  A
C1018      H1405   1.081       .  S
C1019      C1020   1.379       .  A
C1019      H1022   1.084   1_554  S
C1020      C1070   1.495       .  S
H1021      C1402   1.082       .  S
N1023      C1027   1.357       .  A
N1023      C1024   1.345       .  A
N1023      C1097   1.431       .  S
C1024      C1025   1.387       .  A
C1024      C1044   1.472       .  S
C1025      C1026   1.371       .  A
C1025      H1028   1.083       .  S
C1026      C1027   1.381       .  A
C1026      H1029   1.083       .  S
C1027      C2492   1.472   1_455  S
N1030      C1034   1.369       .  A
N1030      C1031   1.371   1_554  A
N1030      C1077   1.468       .  S
C1031      C1032   1.390       .  A
C1031      C1482   1.498       .  S
C1032      C2569   1.361   1_455  A
C1032      H1419   1.081       .  S
C1033      C2568   1.363       .  A
C1033      C2570   1.380   1_556  A
C1033      H1036   1.083       .  S
C1034      C2569   1.375   1_454  A
C1034      C2508   1.475   1_455  S
H1035      C1416   1.081       .  S
O1037     Ni1043   1.950       .  S
O1037      C1058   1.279       .  A
O1038     Ni1061   1.923       .  S
O1038      C1047   1.279       .  A
O1039     Ni1043   1.861       .  S
O1039     Ni1061   1.923       .  S
O1039     Ni1055   1.882       .  S
O1039      H1062   0.967       .  S
C1040      O1057   1.270       .  A
C1040      O1049   1.271       .  A
O1041     Ni1060   1.905       .  S
O1041      C1047   1.270       .  A
O1042     Ni1060   1.954       .  S
O1042      C1044   1.275       .  A
Ni1043     O1046   1.939       .  S
Ni1043     O1048   1.894       .  S
C1044      O1054   1.253       .  A
O1045     Ni1061   1.909       .  S
O1045      C1051   1.274       .  A
O1046      C1051   1.286       .  A
C1047      C1093   1.476       .  S
O1048      C1050   1.256       .  A
O1049     Ni1060   1.904       .  S
C1050      O1056   1.282       .  A
H1052      O1053   0.966       .  S
O1053     Ni1061   1.899       .  S
O1053     Ni1055   1.895       .  S
O1053     Ni1060   1.901       .  S
O1054     Ni1055   1.880       .  S
Ni1055     O1059   1.877       .  S
Ni1055     O1057   1.923       .  S
O1056     Ni1061   1.988       .  S
C1058      C1089   1.475       .  S
C1058      O1059   1.255       .  A
O1063     Ni1069   1.971       .  S
O1063      C1084   1.284       .  A
O1064     Ni1087   1.903       .  S
O1064      C1073   1.274       .  A
O1065     Ni1069   1.889       .  S
O1065     Ni1087   1.894       .  S
O1065     Ni1081   1.929       .  S
O1065      H1088   0.966       .  S
C1066      O1083   1.290       .  A
C1066      O1075   1.274       .  A
O1067     Ni1086   1.917       .  S
O1067      C1073   1.276       .  A
O1068     Ni1086   1.957       .  S
O1068      C1070   1.277       .  A
Ni1069     O1072   1.959       .  S
Ni1069     O1074   1.904       .  S
C1070      O1080   1.263       .  A
O1071     Ni1087   1.962       .  S
O1071      C1077   1.289       .  A
O1072      C1077   1.285       .  A
C1073      C1478   1.466   1_554  S
O1074      C1076   1.276       .  A
O1075     Ni1086   1.930       .  S
C1076      O1082   1.286       .  A
H1078      O1079   0.967       .  S
O1079     Ni1087   1.938       .  S
O1079     Ni1081   1.892       .  S
O1079     Ni1086   1.912       .  S
O1080     Ni1081   1.923       .  S
Ni1081     O1085   1.873       .  S
Ni1081     O1083   1.976       .  S
O1082     Ni1087   1.986       .  S
C1084      C1090   1.469       .  S
C1084      O1085   1.256       .  A
C1089      C1090   1.332       .  D
C1089      H1091   1.087       .  S
C1090      H1092   1.086       .  S
C1093      C1094   1.358       .  D
C1093      H1095   1.087       .  S
C1094      C1457   1.475       .  S
C1094      H1096   1.087       .  S
C1097      C1098   1.360       .  D
C1097      H1099   1.082       .  S
C1098      C1415   1.487       .  S
C1098      H1100   1.086       .  S
C1101      C1102   1.348       .  D
C1101      H1103   1.086       .  S
C1102      C1401   1.482       .  S
C1105      C1106   1.381       .  D
C1105      H1107   1.086       .  S
C1106      H1108   1.088       .  S
C1109      C1110   1.356       .  D
C1109      H1111   1.086       .  S
C1110      H1112   1.087       .  S
C1113      C1114   1.349       .  D
C1113      H1115   1.087       .  S
C1114      C1374   1.471       .  S
C1114      H1116   1.087       .  S
C1117      C1118   1.355       .  D
C1117      H1119   1.086       .  S
C1118      N1320   1.445       .  S
C1118      H1504   1.088       .  S
H1120      C1502   1.088       .  S
C1121      C1122   1.351       .  D
C1121      H1123   1.080       .  S
C1122      H1124   1.083       .  S
C1125      C1126   1.343       .  D
C1125      H1127   1.087       .  S
C1126      H1128   1.086       .  S
C1129      C1130   1.325       .  D
C1129      H1131   1.088       .  S
C1130      C1283   1.465       .  S
C1130      H1132   1.086       .  S
C1133      C1134   1.357       .  D
C1133      H1135   1.085       .  S
C1134      H1136   1.086       .  S
C1137      C1138   1.323       .  D
C1137      H1139   1.088       .  S
C1138      H1140   1.088       .  S
C1141      C1142   1.327       .  D
C1141      H1143   1.087       .  S
C1142      C1228   1.455       .  S
C1142      H1144   1.088       .  S
C1145      N1174   1.436       .  S
C1145      C1146   1.352       .  D
C1145      H1147   1.086       .  S
C1146      H1148   1.086       .  S
C1149      C1150   1.353       .  D
C1149      H1151   1.086       .  S
C1150      H1152   1.086       .  S
N1153      C1157   1.381       .  A
N1153      C1154   1.374       .  A
N1153      C1214   1.461       .  S
C1154      C1155   1.373       .  A
C1154      C1533   1.493       .  S
C1155      C1156   1.345       .  A
C1155      H1158   1.073       .  S
C1156      C1157   1.390       .  A
C1156      H1159   1.083       .  S
C1157      C1460   1.528       .  S
N1160      C1164   1.352       .  A
N1160      C1161   1.355       .  A
N1160      C1534   1.453       .  S
C1161      C1162   1.383       .  A
C1161      C1195   1.461       .  S
C1162      C1163   1.371       .  A
C1162      H1165   1.083       .  S
C1163      C1164   1.385       .  A
C1163      H1166   1.084       .  S
C1164      C1424   1.457       .  S
N1167      C2707   1.357       .  A
N1167      C1168   1.352       .  A
N1167      C1530   1.444       .  S
C1168      C1169   1.385       .  A
C1168      C1194   1.480       .  S
C1169      C1170   1.372       .  A
C1169      H1172   1.083       .  S
C1170      C2707   1.385       .  A
C1170      H2709   1.083       .  S
C1171      N2703   1.360       .  A
C1171      C2706   1.387       .  A
C1171      C1254   1.487       .  S
H1173      C2706   1.083       .  S
N1174      C2714   1.344   1_455  A
N1174      C1175   1.352       .  A
C1175      C1176   1.381       .  A
C1175      C1210   1.458       .  S
C1176      C1177   1.375       .  A
C1176      H1179   1.082       .  S
C1177      C2714   1.384   1_455  A
C1177      H2716   1.083   1_455  S
C1178      N2710   1.353       .  A
C1178      C2713   1.380       .  A
C1178      C1287   1.475       .  S
H1180      C2713   1.083       .  S
O1181     Ni1187   1.939       .  S
O1181      C1202   1.281       .  A
O1182     Ni1205   1.876       .  S
O1182      C1191   1.257       .  A
O1183     Ni1187   1.903       .  S
O1183     Ni1205   1.885       .  S
O1183     Ni1199   1.885       .  S
O1183      H1206   0.966       .  S
C1184      C1394   1.455       .  S
C1184      O1201   1.268       .  A
C1184      O1193   1.281       .  A
O1185     Ni1204   1.927       .  S
O1185      C1191   1.278       .  A
O1186     Ni1204   1.915       .  S
O1186      C1188   1.268       .  A
Ni1187     O1190   1.921       .  S
Ni1187     O1192   1.925       .  S
C1188      C1241   1.481       .  S
C1188      O1198   1.272       .  A
O1189     Ni1205   1.904       .  S
O1189      C1195   1.271       .  A
O1190      C1195   1.282       .  A
C1191      C1521   1.456       .  S
O1192      C1194   1.269       .  A
O1193     Ni1204   1.914       .  S
C1194      O1200   1.266       .  A
H1196      O1197   0.966       .  S
O1197     Ni1205   1.890       .  S
O1197     Ni1199   1.883       .  S
O1197     Ni1204   1.893       .  S
O1198     Ni1199   1.922       .  S
Ni1199     O1203   1.869       .  S
Ni1199     O1201   1.902       .  S
O1200     Ni1205   1.906       .  S
C1202      C1525   1.459       .  S
C1202      O1203   1.254       .  A
O1207     Ni1213   1.941       .  S
O1207      C1228   1.281       .  A
O1208     Ni1231   1.868       .  S
O1208      C1217   1.254       .  A
O1209     Ni1213   1.884       .  S
O1209     Ni1231   1.895       .  S
O1209     Ni1225   1.894       .  S
O1209      H1232   0.967       .  S
C1210      O1227   1.277       .  A
C1210      O1219   1.277       .  A
O1211     Ni1230   1.938       .  S
O1211      C1217   1.277       .  A
O1212     Ni1230   1.933       .  S
O1212      C1214   1.279       .  A
Ni1213     O1216   1.906       .  S
Ni1213     O1218   1.938       .  S
C1214      O1224   1.267       .  A
O1215     Ni1231   1.919       .  S
O1215      C1221   1.276       .  A
O1216      C1221   1.277       .  A
C1217      C1522   1.448       .  S
O1218      C1220   1.282       .  A
O1219     Ni1230   1.903       .  S
C1220      N1400   1.469       .  S
C1220      O1226   1.272       .  A
C1221      C1234   1.455       .  S
H1222      O1223   0.967       .  S
O1223     Ni1231   1.894       .  S
O1223     Ni1225   1.900       .  S
O1223     Ni1230   1.895       .  S
O1224     Ni1225   1.944       .  S
Ni1225     O1229   1.872       .  S
Ni1225     O1227   1.927       .  S
O1226     Ni1231   1.957       .  S
C1228      O1229   1.257       .  A
N1233      C1237   1.350       .  A
N1233      C1234   1.352       .  A
N1233      C1517   1.441       .  S
C1234      C1235   1.376       .  A
C1235      C1236   1.372       .  A
C1235      H1238   1.083       .  S
C1236      C1237   1.382       .  A
C1236      H1239   1.083       .  S
C1237      C1276   1.479       .  S
N1240      C1244   1.351       .  A
N1240      C1241   1.357       .  A
N1240      C1518   1.441       .  S
C1241      C1242   1.386       .  A
C1242      C1243   1.373       .  A
C1242      H1245   1.083       .  S
C1243      C1244   1.386       .  A
C1243      H1246   1.083       .  S
C1244      C1260   1.486       .  S
O1247     Ni1253   1.946       .  S
O1247      C1268   1.280       .  A
O1248     Ni1271   1.877       .  S
O1248      C1257   1.255       .  A
O1249     Ni1253   1.913       .  S
O1249     Ni1271   1.886       .  S
O1249     Ni1265   1.880       .  S
O1249      H1272   0.967       .  S
C1250      C1307   1.472       .  S
C1250      O1267   1.267       .  A
C1250      O1259   1.282       .  A
O1251     Ni1270   1.960       .  S
O1251      C1257   1.282       .  A
O1252     Ni1270   1.922       .  S
O1252      C1254   1.270       .  A
Ni1253     O1256   1.938       .  S
Ni1253     O1258   1.939       .  S
C1254      O1264   1.278       .  A
O1255     Ni1271   1.890       .  S
O1255      C1261   1.270       .  A
O1256      C1261   1.279       .  A
C1257      C1513   1.474       .  S
O1258      C1260   1.272       .  A
O1259     Ni1270   1.952       .  S
C1260      O1266   1.264       .  A
C1261      C1314   1.474       .  S
H1262      O1263   0.967       .  S
O1263     Ni1271   1.888       .  S
O1263     Ni1265   1.894       .  S
O1263     Ni1270   1.914       .  S
O1264     Ni1265   1.930       .  S
Ni1265     O1269   1.900       .  S
Ni1265     O1267   1.875       .  S
O1266     Ni1271   1.903       .  S
C1268      C1509   1.479       .  S
C1268      O1269   1.267       .  A
O1273     Ni1279   1.948       .  S
O1273      C1294   1.276       .  A
O1274     Ni1297   1.867       .  S
O1274      C1283   1.246       .  A
O1275     Ni1279   1.918       .  S
O1275     Ni1297   1.900       .  S
O1275     Ni1291   1.901       .  S
O1275      H1298   0.966       .  S
C1276      O1293   1.270       .  A
C1276      O1285   1.289       .  A
O1277     Ni1296   1.971       .  S
O1277      C1283   1.281       .  A
O1278     Ni1296   1.896       .  S
O1278      C1280   1.268       .  A
Ni1279     O1282   1.956       .  S
Ni1279     O1284   1.920       .  S
C1280      C1321   1.465       .  S
C1280      O1290   1.277       .  A
O1281     Ni1297   1.908       .  S
O1281      C1287   1.271       .  A
O1282      C1287   1.286       .  A
O1284      C1286   1.263       .  A
O1285     Ni1296   1.961       .  S
C1286      C1300   1.453       .  S
C1286      O1292   1.256       .  A
H1288      O1289   0.965       .  S
O1289     Ni1297   1.894       .  S
O1289     Ni1291   1.879       .  S
O1289     Ni1296   1.897       .  S
O1290     Ni1291   1.936       .  S
Ni1291     O1295   1.880       .  S
Ni1291     O1293   1.898       .  S
O1292     Ni1297   1.886       .  S
C1294      C1510   1.477       .  S
C1294      O1295   1.261       .  A
N1299      C1303   1.338       .  A
N1299      C1300   1.342       .  A
N1299      C1506   1.421       .  S
C1300      C1301   1.382       .  A
C1301      C1302   1.373       .  A
C1301      H1304   1.082       .  S
C1302      C1303   1.384       .  A
C1302      H1305   1.079       .  S
C1303      C1360   1.458       .  S
N1306      C1310   1.361       .  A
N1306      C1307   1.359       .  A
N1306      C1341   1.446       .  S
C1307      C1308   1.379       .  A
C1308      C1309   1.365       .  A
C1308      H1311   1.083       .  S
C1309      C1310   1.390       .  A
C1309      H1312   1.080       .  S
C1310      C1505   1.477       .  S
N1313      C1317   1.360       .  A
N1313      C1330   1.442       .  S
C1314      C1315   1.379       .  A
C1315      C1316   1.361       .  A
C1315      H1318   1.083       .  S
C1316      H1319   1.076       .  S
C1317      C1501   1.481       .  S
N1320      C1324   1.350       .  A
C1321      C1322   1.384       .  A
C1322      H1325   1.082       .  S
C1323      C1324   1.379       .  A
C1323      H1326   1.083       .  S
C1324      C1366   1.449       .  S
O1327     Ni1333   1.923       .  S
O1327      C1348   1.272       .  A
O1328     Ni1351   1.910       .  S
O1328      C1337   1.274       .  A
O1329     Ni1333   1.921       .  S
O1329     Ni1351   1.904       .  S
O1329     Ni1345   1.907       .  S
O1329      H1352   0.967       .  S
C1330      O1347   1.262       .  A
C1330      O1339   1.269       .  A
O1331     Ni1350   1.895       .  S
O1331      C1337   1.267       .  A
O1332     Ni1350   1.919       .  S
O1332      C1334   1.269       .  A
Ni1333     O1336   1.915       .  S
Ni1333     O1338   1.911       .  S
C1334      C1387   1.495       .  S
C1334      O1344   1.285       .  A
O1335     Ni1351   1.940       .  S
O1335      C1341   1.277       .  A
O1336      C1341   1.268       .  A
C1337      C1494   1.461       .  S
O1338      C1340   1.270       .  A
O1339     Ni1350   1.924       .  S
C1340      C2947   1.476       .  S
C1340      O1346   1.280       .  A
H1342      O1343   0.966       .  S
O1343     Ni1351   1.925       .  S
O1343     Ni1345   1.896       .  S
O1343     Ni1350   1.927       .  S
O1344     Ni1345   1.958       .  S
Ni1345     O1349   1.887       .  S
Ni1345     O1347   1.916       .  S
O1346     Ni1351   1.944       .  S
C1348      C1497   1.465       .  S
C1348      O1349   1.261       .  A
O1353     Ni1359   1.940       .  S
O1353      C1374   1.276       .  A
O1354     Ni1377   1.890       .  S
O1354      C1363   1.268       .  A
O1355     Ni1359   1.897       .  S
O1355     Ni1377   1.873       .  S
O1355     Ni1371   1.907       .  S
O1355      H1378   0.937       .  S
C1356      C2954   1.491       .  S
C1356      O1373   1.276       .  A
C1356      O1365   1.271       .  A
O1357     Ni1376   1.903       .  S
O1357      C1363   1.269       .  A
O1358     Ni1376   1.906       .  S
O1358      C1360   1.265       .  A
Ni1359     O1362   1.944       .  S
Ni1359     O1364   1.900       .  S
C1360      O1370   1.276       .  A
O1361     Ni1377   1.947       .  S
O1361      C1367   1.283       .  A
O1362      C1367   1.282       .  A
C1363      C1493   1.462       .  S
O1364      C1366   1.267       .  A
O1365     Ni1376   1.945       .  S
C1366      O1372   1.274       .  A
C1367      C1383   1.495       .  S
H1368      O1369   0.966       .  S
O1369     Ni1377   1.937       .  S
O1369     Ni1371   1.893       .  S
O1369     Ni1376   1.925       .  S
O1370     Ni1371   1.927       .  S
Ni1371     O1375   1.894       .  S
Ni1371     O1373   1.913       .  S
O1372     Ni1377   1.914       .  S
C1374      O1375   1.268       .  A
N1379      C1383   1.358       .  A
N1379      C1380   1.368       .  A
N1379      C1489   1.459       .  S
C1380      C1381   1.380       .  A
C1380      C1450   1.499       .  S
C1381      C1382   1.381       .  A
C1381      H1384   1.081       .  S
C1382      C1383   1.374       .  A
C1382      H1385   1.074       .  S
N1386      C1390   1.359       .  A
N1386      C1387   1.365       .  A
N1386      C1490   1.454       .  S
C1387      C1388   1.381       .  A
C1388      C1389   1.371       .  A
C1388      H1391   1.083       .  S
C1389      C1390   1.388       .  A
C1389      H1392   1.083       .  S
C1390      C1434   1.484       .  S
N1393      C1397   1.355       .  A
C1394      C1395   1.381       .  A
C1395      H1398   1.083       .  S
C1396      C1397   1.383       .  A
C1396      H1399   1.082       .  S
C1397      C1435   1.472       .  S
N1400      C1401   1.371       .  A
C1402      C1403   1.364       .  A
C1403      C1404   1.382       .  A
C1403      H1406   1.083       .  S
C1404      C1454   1.494       .  S
N1407      C1411   1.359       .  A
N1407      C1408   1.355       .  A
N1407      C1481   1.437       .  S
C1408      C1409   1.384       .  A
C1408      C1428   1.481       .  S
C1409      C1410   1.372       .  A
C1409      H1412   1.083       .  S
C1410      C1411   1.383       .  A
C1410      H1413   1.083   1_455  S
C1411      C2876   1.486   1_455  S
N1414      C1418   1.374       .  A
N1414      C1415   1.367       .  A
N1414      C1461   1.467       .  S
C1415      C1416   1.387       .  A
C1416      C2953   1.359   1_455  A
C1417      C2952   1.360       .  A
C1417      C2954   1.378       .  A
C1417      H1420   1.083       .  S
C1418      C2953   1.379   1_455  A
C1418      C2892   1.489   1_455  S
O1421     Ni1427   1.955       .  S
O1421      C1442   1.285       .  A
O1422     Ni1445   1.911       .  S
O1422      C1431   1.273       .  A
O1423     Ni1427   1.879       .  S
O1423     Ni1445   1.887       .  S
O1423     Ni1439   1.874       .  S
O1423      H1446   0.967       .  S
C1424      O1441   1.267       .  A
C1424      O1433   1.273       .  A
O1425     Ni1444   1.907       .  S
O1425      C1431   1.272       .  A
O1426     Ni1444   1.940       .  S
O1426      C1428   1.274       .  A
Ni1427     O1430   1.926       .  S
Ni1427     O1432   1.929       .  S
C1428      O1438   1.268       .  A
O1429     Ni1445   1.917       .  S
O1429      C1435   1.279       .  A
O1430      C1435   1.286       .  A
C1431      C1477   1.465       .  S
O1432      C1434   1.272       .  A
O1433     Ni1444   1.908       .  S
C1434      O1440   1.274       .  A
H1436      O1437   0.966       .  S
O1437     Ni1445   1.901       .  S
O1437     Ni1439   1.883       .  S
O1437     Ni1444   1.883       .  S
O1438     Ni1439   1.911       .  S
Ni1439     O1443   1.869       .  S
Ni1439     O1441   1.910       .  S
O1440     Ni1445   1.922       .  S
C1442      C1473   1.466       .  S
C1442      O1443   1.257       .  A
O1447     Ni1453   1.958       .  S
O1447      C1468   1.281       .  A
O1448     Ni1471   1.919       .  S
O1448      C1457   1.283       .  A
O1449     Ni1453   1.878       .  S
O1449     Ni1471   1.892       .  S
O1449     Ni1465   1.919       .  S
O1449      H1472   0.966       .  S
C1450      O1467   1.287       .  A
C1450      O1459   1.275       .  A
O1451     Ni1470   1.913       .  S
O1451      C1457   1.276       .  A
O1452     Ni1470   1.951       .  S
O1452      C1454   1.276       .  A
Ni1453     O1456   1.940       .  S
Ni1453     O1458   1.897       .  S
C1454      O1464   1.264       .  A
O1455     Ni1471   1.972       .  S
O1455      C1461   1.294       .  A
O1456      C1461   1.280       .  A
O1458      C1460   1.274       .  A
O1459     Ni1470   1.924       .  S
C1460      O1466   1.291       .  A
H1462      O1463   0.966       .  S
O1463     Ni1471   1.938       .  S
O1463     Ni1465   1.892       .  S
O1463     Ni1470   1.903       .  S
O1464     Ni1465   1.926       .  S
Ni1465     O1469   1.873       .  S
Ni1465     O1467   1.965       .  S
O1466     Ni1471   2.007       .  S
C1468      C1474   1.463       .  S
C1468      O1469   1.254       .  A
C1473      C1474   1.329       .  D
C1473      H1475   1.087       .  S
C1474      H1476   1.087       .  S
C1477      C1478   1.348       .  D
C1477      H1479   1.087       .  S
C1478      H1480   1.087       .  S
C1481      C1482   1.365       .  D
C1481      H1483   1.081       .  S
C1482      H1484   1.086       .  S
C1485      C1486   1.345       .  D
C1485      H1487   1.085       .  S
C1489      C1490   1.373       .  D
C1489      H1491   1.085       .  S
C1490      H1492   1.085       .  S
C1493      C1494   1.352       .  D
C1493      H1495   1.087       .  S
C1494      H1496   1.087       .  S
C1497      C1498   1.340       .  D
C1497      H1499   1.087       .  S
C1498      H1500   1.087       .  S
C1501      C1502   1.359       .  D
C1501      H1503   1.085       .  S
C1505      C1506   1.350       .  D
C1505      H1507   1.082       .  S
C1506      H1508   1.082       .  S
C1509      C1510   1.344       .  D
C1509      H1511   1.087       .  S
C1510      H1512   1.086       .  S
C1513      C1514   1.330       .  D
C1513      H1515   1.087       .  S
C1514      H1516   1.086       .  S
C1517      C1518   1.356       .  D
C1517      H1519   1.086       .  S
C1518      H1520   1.086       .  S
C1521      C1522   1.327       .  D
C1521      H1523   1.087       .  S
C1522      H1524   1.087       .  S
C1525      C1526   1.323       .  D
C1525      H1527   1.087       .  S
C1526      H1528   1.089       .  S
C1529      C1530   1.355       .  D
C1529      H1531   1.086       .  S
C1530      H1532   1.086       .  S
C1533      C1534   1.358       .  D
C1533      H1535   1.086       .  S
C1534      H1536   1.085       .  S
N1537      C1541   1.374       .  A
N1537      C1538   1.365       .  A
N1537      C1598   1.455       .  S
C1538      C1539   1.374       .  A
C1538      C1917   1.491       .  S
C1539      C1540   1.356       .  A
C1539      H1542   1.070       .  S
C1540      C1541   1.387       .  A
C1540      H1543   1.083       .  S
C1541      C1844   1.517       .  S
N1544      C1548   1.355       .  A
N1544      C1545   1.356       .  A
N1544      C1918   1.451       .  S
C1545      C1546   1.381       .  A
C1545      C1579   1.464       .  S
C1546      C1547   1.372       .  A
C1546      H1549   1.083       .  S
C1547      C1548   1.387       .  A
C1547      H1550   1.083       .  S
C1548      C1808   1.460       .  S
N1551      C1552   1.355       .  A
N1551      C1914   1.449       .  S
C1552      C1553   1.384       .  A
C1552      C1578   1.485       .  S
C1553      C1554   1.372       .  A
C1553      H1556   1.083       .  S
C1555      C1638   1.485   1_455  S
N1558      C1559   1.357       .  A
N1558      C2297   1.445   1_554  S
C1559      C1560   1.386       .  A
C1559      C1594   1.471       .  S
C1560      C1561   1.376       .  A
C1560      H1563   1.084       .  S
C1562      C1671   1.467       .  S
O1565     Ni1571   1.931       .  S
O1565      C1586   1.278       .  A
O1566     Ni1589   1.884       .  S
O1566      C1575   1.258       .  A
O1567     Ni1571   1.911       .  S
O1567     Ni1589   1.890       .  S
O1567     Ni1583   1.889       .  S
O1567      H1590   0.967       .  S
C1568      C1778   1.459       .  S
C1568      O1585   1.267       .  A
C1568      O1577   1.279       .  A
O1569     Ni1588   1.933       .  S
O1569      C1575   1.277       .  A
O1570     Ni1588   1.916       .  S
O1570      C1572   1.268       .  A
Ni1571     O1574   1.921       .  S
Ni1571     O1576   1.925       .  S
C1572      C1625   1.482       .  S
C1572      O1582   1.273       .  A
O1573     Ni1589   1.902       .  S
O1573      C1579   1.271       .  A
O1574      C1579   1.278       .  A
C1575      C1905   1.465       .  S
O1576      C1578   1.269       .  A
O1577     Ni1588   1.918       .  S
C1578      O1584   1.268       .  A
H1580      O1581   0.966       .  S
O1581     Ni1589   1.897       .  S
O1581     Ni1583   1.896       .  S
O1581     Ni1588   1.907       .  S
O1582     Ni1583   1.922       .  S
Ni1583     O1587   1.878       .  S
Ni1583     O1585   1.903       .  S
O1584     Ni1589   1.912       .  S
C1586      C1909   1.459       .  S
C1586      O1587   1.256       .  A
O1591     Ni1597   1.951       .  S
O1591      C1612   1.283       .  A
O1592     Ni1615   1.876       .  S
O1592      C1601   1.255       .  A
O1593     Ni1597   1.897       .  S
O1593     Ni1615   1.893       .  S
O1593     Ni1609   1.902       .  S
O1593      H1616   0.966       .  S
C1594      O1611   1.281       .  A
C1594      O1603   1.278       .  A
O1595     Ni1614   1.944       .  S
O1595      C1601   1.278       .  A
O1596     Ni1614   1.936       .  S
O1596      C1598   1.280       .  A
Ni1597     O1600   1.925       .  S
Ni1597     O1602   1.940       .  S
C1598      O1608   1.267       .  A
O1599     Ni1615   1.907       .  S
O1599      C1605   1.271       .  A
O1600      C1605   1.281       .  A
C1601      C1906   1.460       .  S
O1602      C1604   1.277       .  A
O1603     Ni1614   1.911       .  S
C1604      N1784   1.457       .  S
C1604      O1610   1.272       .  A
C1605      C1618   1.458       .  S
H1606      O1607   0.967       .  S
O1607     Ni1615   1.897       .  S
O1607     Ni1609   1.897       .  S
O1607     Ni1614   1.896       .  S
O1608     Ni1609   1.933       .  S
Ni1609     O1613   1.872       .  S
Ni1609     O1611   1.939       .  S
O1610     Ni1615   1.937       .  S
C1612      C2294   1.459   1_554  S
C1612      O1613   1.257       .  A
N1617      C1621   1.350       .  A
N1617      C1618   1.350       .  A
N1617      C1901   1.445       .  S
C1618      C1619   1.378       .  A
C1619      C1620   1.369       .  A
C1619      H1622   1.082       .  S
C1620      C1621   1.382       .  A
C1620      H1623   1.083       .  S
C1621      C1660   1.473       .  S
N1624      C1628   1.353       .  A
N1624      C1625   1.360       .  A
N1624      C1902   1.445       .  S
C1625      C1626   1.385       .  A
C1626      C1627   1.370       .  A
C1626      H1629   1.083       .  S
C1627      C1628   1.385       .  A
C1627      H1630   1.083       .  S
C1628      C1644   1.487       .  S
O1631     Ni1637   1.941       .  S
O1631      C1652   1.279       .  A
O1632     Ni1655   1.874       .  S
O1632      C1641   1.253       .  A
O1633     Ni1637   1.914       .  S
O1633     Ni1655   1.885       .  S
O1633     Ni1649   1.877       .  S
O1633      H1656   0.966       .  S
C1634      C1691   1.465       .  S
C1634      O1651   1.266       .  A
C1634      O1643   1.282       .  A
O1635     Ni1654   1.961       .  S
O1635      C1641   1.282       .  A
O1636     Ni1654   1.915       .  S
O1636      C1638   1.269       .  A
Ni1637     O1640   1.931       .  S
Ni1637     O1642   1.943       .  S
C1638      O1648   1.280       .  A
O1639     Ni1655   1.884       .  S
O1639      C1645   1.269       .  A
O1640      C1645   1.276       .  A
C1641      C1897   1.474       .  S
O1642      C1644   1.273       .  A
O1643     Ni1654   1.948       .  S
C1644      O1650   1.263       .  A
C1645      C1698   1.473       .  S
H1646      O1647   0.966       .  S
O1647     Ni1655   1.883       .  S
O1647     Ni1649   1.893       .  S
O1647     Ni1654   1.911       .  S
O1648     Ni1649   1.935       .  S
Ni1649     O1653   1.902       .  S
Ni1649     O1651   1.868       .  S
O1650     Ni1655   1.897       .  S
C1652      C1893   1.478       .  S
C1652      O1653   1.269       .  A
O1657     Ni1663   1.947       .  S
O1657      C1678   1.277       .  A
O1658     Ni1681   1.869       .  S
O1658      C1667   1.251       .  A
O1659     Ni1663   1.912       .  S
O1659     Ni1681   1.897       .  S
O1659     Ni1675   1.901       .  S
O1659      H1682   0.966       .  S
C1660      O1677   1.273       .  A
C1660      O1669   1.290       .  A
O1661     Ni1680   1.966       .  S
O1661      C1667   1.280       .  A
O1662     Ni1680   1.896       .  S
O1662      C1664   1.268       .  A
Ni1663     O1666   1.943       .  S
Ni1663     O1668   1.919       .  S
C1664      C1705   1.466       .  S
C1664      O1674   1.275       .  A
O1665     Ni1681   1.905       .  S
O1665      C1671   1.270       .  A
O1666      C1671   1.284       .  A
C1667      C2282   1.467   1_554  S
O1668      C1670   1.267       .  A
O1669     Ni1680   1.955       .  S
C1670      C1684   1.457       .  S
C1670      O1676   1.260       .  A
H1672      O1673   0.966       .  S
O1673     Ni1681   1.885       .  S
O1673     Ni1675   1.873       .  S
O1673     Ni1680   1.888       .  S
O1674     Ni1675   1.934       .  S
Ni1675     O1679   1.884       .  S
Ni1675     O1677   1.899       .  S
O1676     Ni1681   1.889       .  S
C1678      C1894   1.477       .  S
C1678      O1679   1.262       .  A
N1683      C1687   1.341       .  A
N1683      C1684   1.345       .  A
N1683      C1890   1.426       .  S
C1684      C1685   1.382       .  A
C1685      C1686   1.372       .  A
C1685      H1688   1.083       .  S
C1686      C1687   1.384       .  A
C1686      H1689   1.081       .  S
C1687      C1744   1.452       .  S
N1690      C1694   1.361   1_655  A
N1690      C1691   1.359       .  A
N1690      C1725   1.453       .  S
C1691      C1692   1.380   1_655  A
C1692      C1693   1.364       .  A
C1692      H1695   1.083       .  S
C1693      C1694   1.389       .  A
C1693      H1696   1.081       .  S
C1694      C1889   1.467   1_455  S
N1697      C1701   1.356       .  A
N1697      C2466   1.362   1_545  A
N1697      C1714   1.444       .  S
C1698      N2465   1.366       .  A
C1698      C1699   1.380       .  A
C1699      C1700   1.357       .  A
C1699      H1702   1.083       .  S
C1700      C2469   1.384       .  A
C1700      H1703   1.075       .  S
C1701      C2468   1.385   1_545  A
C1701      C1885   1.478       .  S
N1704      C1708   1.353       .  A
N1704      C2473   1.352   1_545  A
N1704      C2270   1.446       .  S
C1705      N2472   1.354       .  A
C1705      C1706   1.384       .  A
C1706      C2475   1.362       .  A
C1706      H1709   1.082       .  S
C1707      C2474   1.370   1_545  A
C1707      C1708   1.381       .  A
C1707      H1710   1.083       .  S
C1708      C1750   1.461       .  S
O1711     Ni1717   1.915       .  S
O1711      C1732   1.275       .  A
O1712     Ni1735   1.918       .  S
O1712      C1721   1.273       .  A
O1713     Ni1717   1.901       .  S
O1713     Ni1735   1.898       .  S
O1713     Ni1729   1.918       .  S
O1713      H1736   0.967       .  S
C1714      O1731   1.281       .  A
C1714      O1723   1.272       .  A
O1715     Ni1734   1.894       .  S
O1715      C1721   1.265       .  A
O1716     Ni1734   1.895       .  S
O1716      C1718   1.271       .  A
Ni1717     O1720   1.926       .  S
Ni1717     O1722   1.921       .  S
C1718      C1771   1.500       .  S
C1718      O1728   1.287       .  A
O1719     Ni1735   1.945       .  S
O1719      C1725   1.283       .  A
O1720      C1725   1.274       .  A
C1721      C1878   1.461       .  S
O1722      C1724   1.268       .  A
O1723     Ni1734   1.916       .  S
C1724      O1730   1.272       .  A
H1726      O1727   0.964       .  S
O1727     Ni1735   1.921       .  S
O1727     Ni1729   1.889       .  S
O1727     Ni1734   1.866       .  S
O1728     Ni1729   1.982       .  S
Ni1729     O1733   1.906       .  S
Ni1729     O1731   1.949       .  S
O1730     Ni1735   1.932       .  S
C1732      C1881   1.472       .  S
C1732      O1733   1.275       .  A
O1737     Ni1743   1.934       .  S
O1737      C1758   1.275       .  A
O1738     Ni1761   1.890       .  S
O1738      C1747   1.269       .  A
O1739     Ni1743   1.902       .  S
O1739     Ni1761   1.877       .  S
O1739     Ni1755   1.908       .  S
O1739      H1762   0.953       .  S
C1740      O1757   1.274       .  A
C1740      O1749   1.272       .  A
O1741     Ni1760   1.904       .  S
O1741      C1747   1.268       .  A
O1742     Ni1760   1.904       .  S
O1742      C1744   1.263       .  A
Ni1743     O1746   1.941       .  S
Ni1743     O1748   1.906       .  S
C1744      O1754   1.271       .  A
O1745     Ni1761   1.953       .  S
O1745      C1751   1.286       .  A
O1746      C1751   1.280       .  A
C1747      C1877   1.461       .  S
O1748      C1750   1.269       .  A
O1749     Ni1760   1.948       .  S
C1750      O1756   1.276       .  A
C1751      C1767   1.499       .  S
H1752      O1753   0.966       .  S
O1753     Ni1761   1.943       .  S
O1753     Ni1755   1.895       .  S
O1753     Ni1760   1.932       .  S
O1754     Ni1755   1.917       .  S
Ni1755     O1759   1.883       .  S
Ni1755     O1757   1.908       .  S
O1756     Ni1761   1.926       .  S
C1758      C2266   1.464   1_554  S
C1758      O1759   1.260       .  A
N1763      C1767   1.367       .  A
N1763      C1764   1.376       .  A
N1763      C1873   1.472       .  S
C1764      C1765   1.377       .  A
C1764      C1834   1.506       .  S
C1765      C1766   1.378       .  A
C1765      H1768   1.079       .  S
C1766      C1767   1.380       .  A
C1766      H1769   1.078       .  S
N1770      C1774   1.369       .  A
N1770      C1771   1.374       .  A
N1770      C1874   1.473       .  S
C1771      C1772   1.383       .  A
C1772      C1773   1.350       .  A
C1772      H1775   1.082       .  S
C1773      C1774   1.377       .  A
C1773      H1776   1.081       .  S
C1774      C1818   1.477       .  S
N1777      C1781   1.356   1_565  A
N1777      C2546   1.356       .  A
N1777      C2637   1.450       .  S
C1778      N2545   1.350       .  A
C1778      C1779   1.380       .  A
C1779      C2548   1.377       .  A
C1779      H1782   1.083       .  S
C1780      C2547   1.371   1_545  A
C1780      C1781   1.383       .  A
C1780      H1783   1.083       .  S
C1781      C1819   1.457       .  S
N1784      C2556   1.373       .  A
N1784      C1785   1.365   1_554  A
C1785      C2554   1.383       .  A
C1785      C2254   1.487       .  S
C1786      C2553   1.386       .  A
C1786      C1787   1.361   1_556  A
C1786      H2173   1.080       .  S
C1787      C1788   1.379       .  A
C1787      H1790   1.084       .  S
C1788      N2552   1.375   1_545  A
C1788      C1838   1.496       .  S
H1789      C2170   1.069       .  S
N1791      C1795   1.358       .  A
N1791      C1792   1.346       .  A
N1791      C1865   1.433       .  S
C1792      C1793   1.387       .  A
C1792      C1812   1.474       .  S
C1793      C1794   1.370       .  A
C1793      H1796   1.083       .  S
C1794      C1795   1.381       .  A
C1794      H1797   1.083       .  S
N1798      C1802   1.368       .  A
N1798      C1799   1.370   1_554  A
N1798      C1845   1.464       .  S
C1799      C1800   1.389       .  A
C1799      C2250   1.500       .  S
C1800      H2187   1.081       .  S
C1801      H1804   1.083   1_455  S
H1803      C2184   1.081       .  S
O1805     Ni1811   1.943       .  S
O1805      C1826   1.278       .  A
O1806     Ni1829   1.920       .  S
O1806      C1815   1.277       .  A
O1807     Ni1811   1.859       .  S
O1807     Ni1829   1.918       .  S
O1807     Ni1823   1.880       .  S
O1807      H1830   0.967       .  S
C1808      O1825   1.270       .  A
C1808      O1817   1.268       .  A
O1809     Ni1828   1.906       .  S
O1809      C1815   1.269       .  A
O1810     Ni1828   1.955       .  S
O1810      C1812   1.275       .  A
Ni1811     O1814   1.934       .  S
Ni1811     O1816   1.899       .  S
C1812      O1822   1.254       .  A
O1813     Ni1829   1.896       .  S
O1813      C1819   1.270       .  A
O1814      C1819   1.285       .  A
C1815      C1861   1.477       .  S
O1816      C1818   1.259       .  A
O1817     Ni1828   1.898       .  S
C1818      O1824   1.282       .  A
H1820      O1821   0.967       .  S
O1821     Ni1829   1.889       .  S
O1821     Ni1823   1.899       .  S
O1821     Ni1828   1.897       .  S
O1822     Ni1823   1.879       .  S
Ni1823     O1827   1.882       .  S
Ni1823     O1825   1.922       .  S
O1824     Ni1829   1.982       .  S
C1826      C1857   1.473       .  S
C1826      O1827   1.257       .  A
O1831     Ni1837   1.964       .  S
O1831      C1852   1.283       .  A
O1832     Ni1855   1.903       .  S
O1832      C1841   1.272       .  A
O1833     Ni1837   1.890       .  S
O1833     Ni1855   1.897       .  S
O1833     Ni1849   1.928       .  S
O1833      H1856   0.966       .  S
C1834      O1851   1.288       .  A
C1834      O1843   1.274       .  A
O1835     Ni1854   1.914       .  S
O1835      C1841   1.273       .  A
O1836     Ni1854   1.950       .  S
O1836      C1838   1.276       .  A
Ni1837     O1840   1.955       .  S
Ni1837     O1842   1.903       .  S
C1838      O1848   1.264       .  A
O1839     Ni1855   1.950       .  S
O1839      C1845   1.284       .  A
O1840      C1845   1.283       .  A
C1841      C2246   1.468   1_554  S
O1842      C1844   1.276       .  A
O1843     Ni1854   1.930       .  S
C1844      O1850   1.286       .  A
H1846      O1847   0.966       .  S
O1847     Ni1855   1.934       .  S
O1847     Ni1849   1.899       .  S
O1847     Ni1854   1.916       .  S
O1848     Ni1849   1.928       .  S
Ni1849     O1853   1.879       .  S
Ni1849     O1851   1.969       .  S
O1850     Ni1855   1.986       .  S
C1852      C1858   1.469       .  S
C1852      O1853   1.258       .  A
C1857      C1858   1.334       .  D
C1857      H1859   1.087       .  S
C1858      H1860   1.086       .  S
C1861      C1862   1.356       .  D
C1861      H1863   1.086       .  S
C1862      C2225   1.476       .  S
C1862      H1864   1.087       .  S
C1865      C1866   1.359       .  D
C1865      H1867   1.082       .  S
C1866      C2183   1.488       .  S
C1866      H1868   1.086       .  S
C1869      N2545   1.436       .  S
C1869      C1870   1.346       .  D
C1869      H1871   1.086       .  S
C1870      C2169   1.484       .  S
C1870      H2640   1.087       .  S
H1872      C2638   1.087       .  S
C1873      C1874   1.378       .  D
C1873      H1875   1.087       .  S
C1874      H1876   1.088       .  S
C1877      C1878   1.354       .  D
C1877      H1879   1.086       .  S
C1878      H1880   1.087       .  S
C1881      C1882   1.350       .  D
C1881      H1883   1.087       .  S
C1882      C2142   1.466       .  S
C1882      H1884   1.087       .  S
C1885      C1886   1.356       .  D
C1885      H1887   1.086       .  S
C1886      N2088   1.445       .  S
C1886      H2272   1.088   1_545  S
H1888      C2270   1.088   1_556  S
C1889      C1890   1.350       .  D
C1889      H1891   1.081       .  S
C1890      H1892   1.083   1_655  S
C1893      C1894   1.345       .  D
C1893      H1895   1.087       .  S
C1894      H1896   1.087       .  S
C1897      C1898   1.328       .  D
C1897      H1899   1.087       .  S
C1898      C2051   1.467       .  S
C1898      H1900   1.087       .  S
C1901      C1902   1.358       .  D
C1901      H1903   1.085       .  S
C1902      H1904   1.086       .  S
C1905      C1906   1.332       .  D
C1905      H1907   1.087       .  S
C1906      H1908   1.087       .  S
C1909      C1910   1.328       .  D
C1909      H1911   1.087       .  S
C1910      C1996   1.456       .  S
C1910      H1912   1.088       .  S
C1913      N1942   1.449       .  S
C1913      C1914   1.356       .  D
C1913      H1915   1.086       .  S
C1914      H1916   1.085       .  S
C1917      C1918   1.355       .  D
C1917      H1919   1.086       .  S
C1918      H1920   1.085       .  S
N1921      C1925   1.378       .  A
N1921      C1922   1.372       .  A
N1921      C1982   1.458       .  S
C1922      C1923   1.375       .  A
C1922      C2301   1.494       .  S
C1923      C1924   1.357       .  A
C1923      H1926   1.072       .  S
C1924      C1925   1.388       .  A
C1924      H1927   1.083       .  S
C1925      C2228   1.520       .  S
N1928      C1932   1.353       .  A
N1928      C1929   1.359       .  A
N1928      C2302   1.454       .  S
C1929      C1930   1.382       .  A
C1929      C1963   1.464       .  S
C1930      C1931   1.371       .  A
C1930      H1933   1.083       .  S
C1931      C1932   1.386       .  A
C1931      H1934   1.084       .  S
C1932      C2192   1.457       .  S
N1935      C1936   1.355       .  A
N1935      C2298   1.445       .  S
C1936      C1937   1.384       .  A
C1936      C1962   1.481       .  S
C1937      C1938   1.371       .  A
C1937      H1940   1.083       .  S
C1939      C2022   1.485   1_455  S
N1942      C1943   1.359       .  A
C1943      C1944   1.386       .  A
C1943      C1978   1.471       .  S
C1944      C1945   1.376       .  A
C1944      H1947   1.084       .  S
C1946      C2055   1.470       .  S
O1949     Ni1955   1.937       .  S
O1949      C1970   1.279       .  A
O1950     Ni1973   1.883       .  S
O1950      C1959   1.257       .  A
O1951     Ni1955   1.908       .  S
O1951     Ni1973   1.890       .  S
O1951     Ni1967   1.891       .  S
O1951      H1974   0.966       .  S
C1952      C2162   1.458       .  S
C1952      O1969   1.268       .  A
C1952      O1961   1.277       .  A
O1953     Ni1972   1.919       .  S
O1953      C1959   1.274       .  A
O1954     Ni1972   1.915       .  S
O1954      C1956   1.268       .  A
Ni1955     O1958   1.925       .  S
Ni1955     O1960   1.925       .  S
C1956      C2009   1.481       .  S
C1956      O1966   1.273       .  A
O1957     Ni1973   1.900       .  S
O1957      C1963   1.270       .  A
O1958      C1963   1.281       .  A
C1959      C2289   1.459       .  S
O1960      C1962   1.269       .  A
O1961     Ni1972   1.907       .  S
C1962      O1968   1.268       .  A
H1964      O1965   0.967       .  S
O1965     Ni1973   1.897       .  S
O1965     Ni1967   1.892       .  S
O1965     Ni1972   1.902       .  S
O1966     Ni1967   1.922       .  S
Ni1967     O1971   1.877       .  S
Ni1967     O1969   1.907       .  S
O1968     Ni1973   1.908       .  S
C1970      C2293   1.462       .  S
C1970      O1971   1.256       .  A
O1975     Ni1981   1.949       .  S
O1975      C1996   1.284       .  A
O1976     Ni1999   1.870       .  S
O1976      C1985   1.255       .  A
O1977     Ni1981   1.895       .  S
O1977     Ni1999   1.891       .  S
O1977     Ni1993   1.905       .  S
O1977      H2000   0.966       .  S
C1978      O1995   1.281       .  A
C1978      O1987   1.278       .  A
O1979     Ni1998   1.935       .  S
O1979      C1985   1.276       .  A
O1980     Ni1998   1.932       .  S
O1980      C1982   1.278       .  A
Ni1981     O1984   1.920       .  S
Ni1981     O1986   1.946       .  S
C1982      O1992   1.271       .  A
O1983     Ni1999   1.918       .  S
O1983      C1989   1.275       .  A
O1984      C1989   1.280       .  A
C1985      C2290   1.449       .  S
O1986      C1988   1.279       .  A
O1987     Ni1998   1.907       .  S
C1988      N2168   1.460       .  S
C1988      O1994   1.270       .  A
C1989      C2002   1.461       .  S
H1990      O1991   0.966       .  S
O1991     Ni1999   1.900       .  S
O1991     Ni1993   1.893       .  S
O1991     Ni1998   1.890       .  S
O1992     Ni1993   1.947       .  S
Ni1993     O1997   1.870       .  S
Ni1993     O1995   1.941       .  S
O1994     Ni1999   1.937       .  S
C1996      O1997   1.257       .  A
N2001      C2005   1.347       .  A
N2001      C2002   1.350       .  A
N2001      C2285   1.439       .  S
C2002      C2003   1.380       .  A
C2003      C2004   1.372       .  A
C2003      H2006   1.083       .  S
C2004      C2005   1.382       .  A
C2004      H2007   1.083       .  S
C2005      C2044   1.471       .  S
N2008      C2012   1.353       .  A
N2008      C2009   1.359       .  A
N2008      C2286   1.440       .  S
C2009      C2010   1.385       .  A
C2010      C2011   1.372       .  A
C2010      H2013   1.083       .  S
C2011      C2012   1.385       .  A
C2011      H2014   1.083       .  S
C2012      C2028   1.488       .  S
O2015     Ni2021   1.955       .  S
O2015      C2036   1.282       .  A
O2016     Ni2039   1.878       .  S
O2016      C2025   1.254       .  A
O2017     Ni2021   1.913       .  S
O2017     Ni2039   1.889       .  S
O2017     Ni2033   1.883       .  S
O2017      H2040   0.966       .  S
C2018      C2075   1.469       .  S
C2018      O2035   1.269       .  A
C2018      O2027   1.280       .  A
O2019     Ni2038   1.955       .  S
O2019      C2025   1.280       .  A
O2020     Ni2038   1.920       .  S
O2020      C2022   1.269       .  A
Ni2021     O2024   1.945       .  S
Ni2021     O2026   1.941       .  S
C2022      O2032   1.277       .  A
O2023     Ni2039   1.886       .  S
O2023      C2029   1.268       .  A
O2024      C2029   1.281       .  A
C2025      C2281   1.474       .  S
O2026      C2028   1.273       .  A
O2027     Ni2038   1.945       .  S
C2028      O2034   1.266       .  A
C2029      C2082   1.477       .  S
H2030      O2031   0.966       .  S
O2031     Ni2039   1.887       .  S
O2031     Ni2033   1.897       .  S
O2031     Ni2038   1.916       .  S
O2032     Ni2033   1.929       .  S
Ni2033     O2037   1.901       .  S
Ni2033     O2035   1.882       .  S
O2034     Ni2039   1.906       .  S
C2036      C2277   1.483       .  S
C2036      O2037   1.268       .  A
O2041     Ni2047   1.956       .  S
O2041      C2062   1.279       .  A
O2042     Ni2065   1.869       .  S
O2042      C2051   1.248       .  A
O2043     Ni2047   1.918       .  S
O2043     Ni2065   1.897       .  S
O2043     Ni2059   1.904       .  S
O2043      H2066   0.966       .  S
C2044      O2061   1.274       .  A
C2044      O2053   1.289       .  A
O2045     Ni2064   1.969       .  S
O2045      C2051   1.281       .  A
O2046     Ni2064   1.901       .  S
O2046      C2048   1.269       .  A
Ni2047     O2050   1.959       .  S
Ni2047     O2052   1.919       .  S
C2048      C2089   1.471       .  S
C2048      O2058   1.277       .  A
O2049     Ni2065   1.897       .  S
O2049      C2055   1.268       .  A
O2050      C2055   1.287       .  A
O2052      C2054   1.264       .  A
O2053     Ni2064   1.948       .  S
C2054      C2068   1.459       .  S
C2054      O2060   1.260       .  A
H2056      O2057   0.966       .  S
O2057     Ni2065   1.883       .  S
O2057     Ni2059   1.874       .  S
O2057     Ni2064   1.889       .  S
O2058     Ni2059   1.938       .  S
Ni2059     O2063   1.880       .  S
Ni2059     O2061   1.904       .  S
O2060     Ni2065   1.891       .  S
C2062      C2278   1.481       .  S
C2062      O2063   1.262       .  A
N2067      C2071   1.341       .  A
N2067      C2068   1.350       .  A
N2067      C2274   1.430       .  S
C2068      C2069   1.385       .  A
C2069      C2070   1.369       .  A
C2069      H2072   1.083       .  S
C2070      C2071   1.380       .  A
C2070      H2073   1.079       .  S
C2071      C2128   1.455       .  S
N2074      C2078   1.365       .  A
N2074      C2075   1.360       .  A
N2074      C2109   1.453       .  S
C2075      C2076   1.378   1_655  A
C2076      C2077   1.364       .  A
C2076      H2079   1.083       .  S
C2077      C2078   1.392   1_455  A
C2077      H2080   1.080       .  S
C2078      C2273   1.478       .  S
N2081      C2085   1.361       .  A
N2081      C2850   1.360   1_545  A
N2081      C2098   1.441       .  S
C2082      N2849   1.364       .  A
C2082      C2083   1.379       .  A
C2083      C2084   1.364       .  A
C2083      H2086   1.083       .  S
C2084      C2853   1.384       .  A
C2084      H2087   1.077       .  S
C2085      C2852   1.383   1_545  A
C2085      C2269   1.481       .  S
N2088      C2092   1.348       .  A
N2088      C2857   1.354   1_545  A
C2089      N2856   1.351       .  A
C2089      C2090   1.383       .  A
C2090      C2859   1.369       .  A
C2090      H2093   1.082       .  S
C2091      C2858   1.369   1_545  A
C2091      C2092   1.375       .  A
C2091      H2094   1.082       .  S
C2092      C2134   1.451       .  S
O2095     Ni2101   1.925       .  S
O2095      C2116   1.272       .  A
O2096     Ni2119   1.905       .  S
O2096      C2105   1.272       .  A
O2097     Ni2101   1.922       .  S
O2097     Ni2119   1.907       .  S
O2097     Ni2113   1.913       .  S
O2097      H2120   0.966       .  S
C2098      O2115   1.263       .  A
C2098      O2107   1.270       .  A
O2099     Ni2118   1.900       .  S
O2099      C2105   1.269       .  A
O2100     Ni2118   1.919       .  S
O2100      C2102   1.268       .  A
Ni2101     O2104   1.926       .  S
Ni2101     O2106   1.911       .  S
C2102      C2155   1.494       .  S
C2102      O2112   1.284       .  A
O2103     Ni2119   1.944       .  S
O2103      C2109   1.275       .  A
O2104      C2109   1.271       .  A
C2105      C2262   1.460       .  S
O2106      C2108   1.269       .  A
O2107     Ni2118   1.927       .  S
C2108      O2114   1.279       .  A
H2110      O2111   0.966       .  S
O2111     Ni2119   1.921       .  S
O2111     Ni2113   1.895       .  S
O2111     Ni2118   1.924       .  S
O2112     Ni2113   1.954       .  S
Ni2113     O2117   1.888       .  S
Ni2113     O2115   1.916       .  S
O2114     Ni2119   1.942       .  S
C2116      C2265   1.466       .  S
C2116      O2117   1.261       .  A
O2121     Ni2127   1.926       .  S
O2121      C2142   1.273       .  A
O2122     Ni2145   1.889       .  S
O2122      C2131   1.266       .  A
O2123     Ni2127   1.894       .  S
O2123     Ni2145   1.873       .  S
O2123     Ni2139   1.907       .  S
O2123      H2146   0.958       .  S
C2124      O2141   1.278       .  A
C2124      O2133   1.271       .  A
O2125     Ni2144   1.906       .  S
O2125      C2131   1.269       .  A
O2126     Ni2144   1.902       .  S
O2126      C2128   1.264       .  A
Ni2127     O2130   1.931       .  S
Ni2127     O2132   1.905       .  S
C2128      O2138   1.273       .  A
O2129     Ni2145   1.947       .  S
O2129      C2135   1.283       .  A
O2130      C2135   1.279       .  A
C2131      C2261   1.463       .  S
O2132      C2134   1.268       .  A
O2133     Ni2144   1.941       .  S
C2134      O2140   1.273       .  A
C2135      C2151   1.488       .  S
H2136      O2137   0.967       .  S
O2137     Ni2145   1.935       .  S
O2137     Ni2139   1.896       .  S
O2137     Ni2144   1.925       .  S
O2138     Ni2139   1.921       .  S
Ni2139     O2143   1.901       .  S
Ni2139     O2141   1.914       .  S
O2140     Ni2145   1.916       .  S
C2142      O2143   1.270       .  A
N2147      C2151   1.357       .  A
N2147      C2148   1.364       .  A
N2147      C2257   1.457       .  S
C2148      C2149   1.379       .  A
C2148      C2218   1.496       .  S
C2149      C2150   1.379       .  A
C2149      H2152   1.081       .  S
C2150      C2151   1.374       .  A
C2150      H2153   1.072       .  S
N2154      C2158   1.356       .  A
N2154      C2155   1.363       .  A
N2154      C2258   1.452       .  S
C2155      C2156   1.382       .  A
C2156      C2157   1.372       .  A
C2156      H2159   1.083       .  S
C2157      C2158   1.388       .  A
C2157      H2160   1.083       .  S
C2158      C2202   1.479       .  S
N2161      C2165   1.356   1_565  A
N2161      C2930   1.350       .  A
N2161      C3021   1.441       .  S
C2162      N2929   1.350       .  A
C2162      C2163   1.381       .  A
C2163      C2932   1.374       .  A
C2163      H2166   1.083       .  S
C2164      C2931   1.371   1_545  A
C2164      C2165   1.382       .  A
C2164      H2167   1.082       .  S
C2165      C2203   1.471       .  S
N2168      C2940   1.380       .  A
N2168      C2169   1.364       .  A
C2169      C2938   1.381       .  A
C2170      C2937   1.377   1_545  A
C2170      C2171   1.355       .  A
C2171      C2172   1.386       .  A
C2171      H2174   1.083       .  S
C2172      N2936   1.379   1_545  A
C2172      C2222   1.517       .  S
N2175      C2179   1.357       .  A
N2175      C2176   1.357       .  A
N2175      C2249   1.439       .  S
C2176      C2177   1.384       .  A
C2176      C2196   1.480       .  S
C2177      C2178   1.374       .  A
C2177      H2180   1.083       .  S
C2178      C2179   1.385       .  A
C2178      H2181   1.083       .  S
N2182      C2186   1.374       .  A
N2182      C2183   1.368       .  A
N2182      C2229   1.466       .  S
C2183      C2184   1.388       .  A
C2185      H2188   1.083   1_455  S
O2189     Ni2195   1.956       .  S
O2189      C2210   1.284       .  A
O2190     Ni2213   1.916       .  S
O2190      C2199   1.272       .  A
O2191     Ni2195   1.888       .  S
O2191     Ni2213   1.892       .  S
O2191     Ni2207   1.879       .  S
O2191      H2214   0.966       .  S
C2192      O2209   1.266       .  A
C2192      O2201   1.272       .  A
O2193     Ni2212   1.905       .  S
O2193      C2199   1.269       .  A
O2194     Ni2212   1.927       .  S
O2194      C2196   1.272       .  A
Ni2195     O2198   1.937       .  S
Ni2195     O2200   1.925       .  S
C2196      O2206   1.274       .  A
O2197     Ni2213   1.907       .  S
O2197      C2203   1.277       .  A
O2198      C2203   1.284       .  A
C2199      C2245   1.467       .  S
O2200      C2202   1.271       .  A
O2201     Ni2212   1.901       .  S
C2202      O2208   1.274       .  A
H2204      O2205   0.965       .  S
O2205     Ni2213   1.896       .  S
O2205     Ni2207   1.893       .  S
O2205     Ni2212   1.878       .  S
O2206     Ni2207   1.922       .  S
Ni2207     O2211   1.882       .  S
Ni2207     O2209   1.913       .  S
O2208     Ni2213   1.921       .  S
C2210      C2241   1.473       .  S
C2210      O2211   1.264       .  A
O2215     Ni2221   1.958       .  S
O2215      C2236   1.282       .  A
O2216     Ni2239   1.913       .  S
O2216      C2225   1.281       .  A
O2217     Ni2221   1.895       .  S
O2217     Ni2239   1.899       .  S
O2217     Ni2233   1.929       .  S
O2217      H2240   0.966       .  S
C2218      O2235   1.289       .  A
C2218      O2227   1.278       .  A
O2219     Ni2238   1.921       .  S
O2219      C2225   1.277       .  A
O2220     Ni2238   1.932       .  S
O2220      C2222   1.278       .  A
Ni2221     O2224   1.954       .  S
Ni2221     O2226   1.904       .  S
C2222      O2232   1.278       .  A
O2223     Ni2239   1.959       .  S
O2223      C2229   1.292       .  A
O2224      C2229   1.283       .  A
O2226      C2228   1.275       .  A
O2227     Ni2238   1.927       .  S
C2228      O2234   1.284       .  A
H2230      O2231   0.965       .  S
O2231     Ni2239   1.925       .  S
O2231     Ni2233   1.877       .  S
O2231     Ni2238   1.875       .  S
O2232     Ni2233   1.967       .  S
Ni2233     O2237   1.873       .  S
Ni2233     O2235   1.964       .  S
O2234     Ni2239   1.990       .  S
C2236      C2242   1.472       .  S
C2236      O2237   1.258       .  A
C2241      C2242   1.338       .  D
C2241      H2243   1.087       .  S
C2242      H2244   1.087       .  S
C2245      C2246   1.350       .  D
C2245      H2247   1.087       .  S
C2246      H2248   1.087       .  S
C2249      C2250   1.364       .  D
C2249      H2251   1.082       .  S
C2250      H2252   1.086       .  S
C2253      N2929   1.439       .  S
C2253      C2254   1.349       .  D
C2253      H2255   1.085       .  S
C2254      H3024   1.086       .  S
H2256      C3022   1.085       .  S
C2257      C2258   1.372       .  D
C2257      H2259   1.086       .  S
C2258      H2260   1.084       .  S
C2261      C2262   1.350       .  D
C2261      H2263   1.087       .  S
C2262      H2264   1.087       .  S
C2265      C2266   1.340       .  D
C2265      H2267   1.087       .  S
C2266      H2268   1.087       .  S
C2269      C2270   1.359   1_556  D
C2269      H2271   1.085       .  S
C2273      C2274   1.356       .  D
C2273      H2275   1.083       .  S
C2274      H2276   1.082   1_655  S
C2277      C2278   1.345       .  D
C2277      H2279   1.087       .  S
C2278      H2280   1.086       .  S
C2281      C2282   1.330       .  D
C2281      H2283   1.087       .  S
C2282      H2284   1.086       .  S
C2285      C2286   1.355       .  D
C2285      H2287   1.086       .  S
C2286      H2288   1.086       .  S
C2289      C2290   1.331       .  D
C2289      H2291   1.087       .  S
C2290      H2292   1.088       .  S
C2293      C2294   1.329       .  D
C2293      H2295   1.087       .  S
C2294      H2296   1.088       .  S
C2297      C2298   1.355       .  D
C2297      H2299   1.086       .  S
C2298      H2300   1.086       .  S
C2301      C2302   1.359       .  D
C2301      H2303   1.086       .  S
C2302      H2304   1.084       .  S
N2305      C2309   1.376       .  A
N2305      C2306   1.371       .  A
N2305      C2366   1.458       .  S
C2306      C2307   1.373       .  A
C2306      C2685   1.495       .  S
C2307      C2308   1.357       .  A
C2307      H2310   1.071       .  S
C2308      C2309   1.389       .  A
C2308      H2311   1.083       .  S
C2309      C2612   1.523       .  S
N2312      C2316   1.356       .  A
N2312      C2313   1.359       .  A
N2312      C2686   1.452       .  S
C2313      C2314   1.380       .  A
C2313      C2347   1.463       .  S
C2314      C2315   1.370       .  A
C2314      H2317   1.083       .  S
C2315      C2316   1.387       .  A
C2315      H2318   1.084       .  S
C2316      C2576   1.462       .  S
N2319      C2320   1.355       .  A
N2319      C2682   1.446       .  S
C2320      C2321   1.385       .  A
C2320      C2346   1.487       .  S
C2321      C2322   1.372       .  A
C2321      H2324   1.083       .  S
C2323      C2406   1.480   1_455  S
N2326      C2327   1.358       .  A
N2326      C3065   1.450   1_554  S
C2327      C2328   1.386       .  A
C2327      C2362   1.473       .  S
C2328      C2329   1.376       .  A
C2328      H2331   1.083       .  S
C2330      C2439   1.466       .  S
O2333     Ni2339   1.932       .  S
O2333      C2354   1.278       .  A
O2334     Ni2357   1.879       .  S
O2334      C2343   1.256       .  A
O2335     Ni2339   1.910       .  S
O2335     Ni2357   1.888       .  S
O2335     Ni2351   1.886       .  S
O2335      H2358   0.966       .  S
C2336      C2546   1.461       .  S
C2336      O2353   1.268       .  A
C2336      O2345   1.278       .  A
O2337     Ni2356   1.931       .  S
O2337      C2343   1.276       .  A
O2338     Ni2356   1.912       .  S
O2338      C2340   1.267       .  A
Ni2339     O2342   1.921       .  S
Ni2339     O2344   1.929       .  S
C2340      C2393   1.479       .  S
C2340      O2350   1.272       .  A
O2341     Ni2357   1.902       .  S
O2341      C2347   1.271       .  A
O2342      C2347   1.279       .  A
C2343      C2673   1.462       .  S
O2344      C2346   1.269       .  A
O2345     Ni2356   1.919       .  S
C2346      O2352   1.268       .  A
H2348      O2349   0.967       .  S
O2349     Ni2357   1.895       .  S
O2349     Ni2351   1.897       .  S
O2349     Ni2356   1.911       .  S
O2350     Ni2351   1.919       .  S
Ni2351     O2355   1.880       .  S
Ni2351     O2353   1.903       .  S
O2352     Ni2357   1.912       .  S
C2354      C2677   1.460       .  S
C2354      O2355   1.257       .  A
O2359     Ni2365   1.951       .  S
O2359      C2380   1.285       .  A
O2360     Ni2383   1.874       .  S
O2360      C2369   1.254       .  A
O2361     Ni2365   1.895       .  S
O2361     Ni2383   1.890       .  S
O2361     Ni2377   1.901       .  S
O2361      H2384   0.966       .  S
C2362      O2379   1.282       .  A
C2362      O2371   1.279       .  A
O2363     Ni2382   1.945       .  S
O2363      C2369   1.278       .  A
O2364     Ni2382   1.933       .  S
O2364      C2366   1.278       .  A
Ni2365     O2368   1.931       .  S
Ni2365     O2370   1.951       .  S
C2366      O2376   1.269       .  A
O2367     Ni2383   1.903       .  S
O2367      C2373   1.270       .  A
O2368      C2373   1.282       .  A
C2369      C2674   1.459       .  S
O2370      C2372   1.278       .  A
O2371     Ni2382   1.913       .  S
C2372      N2552   1.466       .  S
C2372      O2378   1.276       .  A
C2373      C2386   1.460       .  S
H2374      O2375   0.968       .  S
O2375     Ni2383   1.895       .  S
O2375     Ni2377   1.898       .  S
O2375     Ni2382   1.895       .  S
O2376     Ni2377   1.942       .  S
Ni2377     O2381   1.874       .  S
Ni2377     O2379   1.941       .  S
O2378     Ni2383   1.949       .  S
C2380      C3062   1.461   1_554  S
C2380      O2381   1.260       .  A
N2385      C2389   1.351       .  A
N2385      C2386   1.353       .  A
N2385      C2669   1.450       .  S
C2386      C2387   1.375       .  A
C2387      C2388   1.366       .  A
C2387      H2390   1.082       .  S
C2388      C2389   1.381       .  A
C2388      H2391   1.084       .  S
C2389      C2428   1.470       .  S
N2392      C2396   1.353       .  A
N2392      C2393   1.357       .  A
N2392      C2670   1.448       .  S
C2393      C2394   1.387       .  A
C2394      C2395   1.371       .  A
C2394      H2397   1.083       .  S
C2395      C2396   1.384       .  A
C2395      H2398   1.083       .  S
C2396      C2412   1.485       .  S
O2399     Ni2405   1.949       .  S
O2399      C2420   1.279       .  A
O2400     Ni2423   1.887       .  S
O2400      C2409   1.260       .  A
O2401     Ni2405   1.916       .  S
O2401     Ni2423   1.896       .  S
O2401     Ni2417   1.881       .  S
O2401      H2424   0.967       .  S
C2402      C2459   1.472       .  S
C2402      O2419   1.269       .  A
C2402      O2411   1.283       .  A
O2403     Ni2422   1.964       .  S
O2403      C2409   1.282       .  A
O2404     Ni2422   1.924       .  S
O2404      C2406   1.271       .  A
Ni2405     O2408   1.938       .  S
Ni2405     O2410   1.935       .  S
C2406      O2416   1.270       .  A
O2407     Ni2423   1.884       .  S
O2407      C2413   1.267       .  A
O2408      C2413   1.278       .  A
C2409      C2665   1.481       .  S
O2410      C2412   1.272       .  A
O2411     Ni2422   1.951       .  S
C2412      O2418   1.268       .  A
C2413      C2466   1.467       .  S
H2414      O2415   0.966       .  S
O2415     Ni2423   1.882       .  S
O2415     Ni2417   1.894       .  S
O2415     Ni2422   1.913       .  S
O2416     Ni2417   1.914       .  S
Ni2417     O2421   1.891       .  S
Ni2417     O2419   1.879       .  S
O2418     Ni2423   1.909       .  S
C2420      C2661   1.476       .  S
C2420      O2421   1.261       .  A
O2425     Ni2431   1.953       .  S
O2425      C2446   1.277       .  A
O2426     Ni2449   1.872       .  S
O2426      C2435   1.250       .  A
O2427     Ni2431   1.919       .  S
O2427     Ni2449   1.899       .  S
O2427     Ni2443   1.894       .  S
O2427      H2450   0.966       .  S
C2428      O2445   1.270       .  A
C2428      O2437   1.288       .  A
O2429     Ni2448   1.975       .  S
O2429      C2435   1.283       .  A
O2430     Ni2448   1.909       .  S
O2430      C2432   1.270       .  A
Ni2431     O2434   1.960       .  S
Ni2431     O2436   1.915       .  S
C2432      C2473   1.472       .  S
C2432      O2442   1.275       .  A
O2433     Ni2449   1.891       .  S
O2433      C2439   1.266       .  A
O2434      C2439   1.287       .  A
C2435      C3050   1.473   1_554  S
O2436      C2438   1.262       .  A
O2437     Ni2448   1.954       .  S
C2438      C2452   1.456       .  S
C2438      O2444   1.262       .  A
H2440      O2441   0.963       .  S
O2441     Ni2449   1.885       .  S
O2441     Ni2443   1.876       .  S
O2441     Ni2448   1.897       .  S
O2442     Ni2443   1.932       .  S
Ni2443     O2447   1.873       .  S
Ni2443     O2445   1.890       .  S
O2444     Ni2449   1.902       .  S
C2446      C2662   1.475       .  S
C2446      O2447   1.257       .  A
N2451      C2455   1.338       .  A
N2451      C2452   1.348       .  A
N2451      C2658   1.428       .  S
C2452      C2453   1.386       .  A
C2453      C2454   1.370       .  A
C2453      H2456   1.081       .  S
C2454      C2455   1.379       .  A
C2454      H2457   1.079       .  S
C2455      C2512   1.452       .  S
N2458      C2462   1.364       .  A
N2458      C2459   1.364       .  A
N2458      C2493   1.454       .  S
C2459      C2460   1.377   1_655  A
C2460      C2461   1.363       .  A
C2460      H2463   1.083       .  S
C2461      C2462   1.392   1_455  A
C2461      H2464   1.080       .  S
C2462      C2657   1.478       .  S
N2465      C2469   1.362       .  A
N2465      C2482   1.449       .  S
C2466      C2467   1.378       .  A
C2467      C2468   1.362       .  A
C2467      H2470   1.083       .  S
C2468      H2471   1.076       .  S
C2469      C2653   1.482       .  S
N2472      C2476   1.354       .  A
N2472      C3038   1.451       .  S
C2473      C2474   1.381       .  A
C2474      H2477   1.080       .  S
C2475      C2476   1.378       .  A
C2475      H2478   1.083       .  S
C2476      C2518   1.456       .  S
O2479     Ni2485   1.930       .  S
O2479      C2500   1.273       .  A
O2480     Ni2503   1.923       .  S
O2480      C2489   1.277       .  A
O2481     Ni2485   1.916       .  S
O2481     Ni2503   1.908       .  S
O2481     Ni2497   1.900       .  S
O2481      H2504   0.966       .  S
C2482      O2499   1.263       .  A
C2482      O2491   1.263       .  A
O2483     Ni2502   1.888       .  S
O2483      C2489   1.263       .  A
O2484     Ni2502   1.895       .  S
O2484      C2486   1.263       .  A
Ni2485     O2488   1.917       .  S
Ni2485     O2490   1.921       .  S
C2486      C2539   1.482       .  S
C2486      O2496   1.296       .  A
O2487     Ni2503   1.951       .  S
O2487      C2493   1.283       .  A
O2488      C2493   1.271       .  A
C2489      C2646   1.463       .  S
O2490      C2492   1.270       .  A
O2491     Ni2502   1.927       .  S
C2492      O2498   1.273       .  A
H2494      O2495   0.966       .  S
O2495     Ni2503   1.945       .  S
O2495     Ni2497   1.911       .  S
O2495     Ni2502   1.904       .  S
O2496     Ni2497   2.006       .  S
Ni2497     O2501   1.906       .  S
Ni2497     O2499   1.932       .  S
O2498     Ni2503   1.928       .  S
C2500      C2649   1.480       .  S
C2500      O2501   1.269       .  A
O2505     Ni2511   1.932       .  S
O2505      C2526   1.272       .  A
O2506     Ni2529   1.913       .  S
O2506      C2515   1.275       .  A
O2507     Ni2511   1.892       .  S
O2507     Ni2529   1.882       .  S
O2507     Ni2523   1.902       .  S
O2507      H2530   0.953       .  S
C2508      O2525   1.274       .  A
C2508      O2517   1.268       .  A
O2509     Ni2528   1.893       .  S
O2509      C2515   1.267       .  A
O2510     Ni2528   1.898       .  S
O2510      C2512   1.264       .  A
Ni2511     O2514   1.934       .  S
Ni2511     O2516   1.892       .  S
C2512      O2522   1.274       .  A
O2513     Ni2529   1.942       .  S
O2513      C2519   1.282       .  A
O2514      C2519   1.279       .  A
C2515      C2645   1.470       .  S
O2516      C2518   1.268       .  A
O2517     Ni2528   1.932       .  S
C2518      O2524   1.280       .  A
C2519      C2535   1.488       .  S
H2520      O2521   0.966       .  S
O2521     Ni2529   1.935       .  S
O2521     Ni2523   1.900       .  S
O2521     Ni2528   1.921       .  S
O2522     Ni2523   1.926       .  S
Ni2523     O2527   1.903       .  S
Ni2523     O2525   1.909       .  S
O2524     Ni2529   1.935       .  S
C2526      C3034   1.471   1_554  S
C2526      O2527   1.268       .  A
N2531      C2535   1.363       .  A
N2531      C2532   1.371       .  A
N2531      C2641   1.469       .  S
C2532      C2533   1.378       .  A
C2532      C2602   1.498       .  S
C2533      C2534   1.376       .  A
C2533      H2536   1.080       .  S
C2534      C2535   1.381       .  A
C2534      H2537   1.080       .  S
N2538      C2542   1.364       .  A
N2538      C2539   1.369       .  A
N2538      C2642   1.470       .  S
C2539      C2540   1.378       .  A
C2540      C2541   1.353       .  A
C2540      H2543   1.082       .  S
C2541      C2542   1.379       .  A
C2541      H2544   1.081       .  S
C2542      C2586   1.472       .  S
N2545      C2549   1.350       .  A
C2546      C2547   1.376       .  A
C2547      H2550   1.081       .  S
C2548      C2549   1.380       .  A
C2548      H2551   1.079       .  S
C2549      C2587   1.470       .  S
N2552      C2553   1.371   1_564  A
C2553      C3022   1.497   1_545  S
C2554      C2555   1.363       .  A
C2554      H2941   1.082       .  S
C2555      C2556   1.380   1_556  A
C2555      H2558   1.083       .  S
C2556      C2606   1.494       .  S
H2557      C2938   1.082       .  S
N2559      C2563   1.359       .  A
N2559      C2560   1.350       .  A
N2559      C2633   1.437       .  S
C2560      C2561   1.387       .  A
C2560      C2580   1.480       .  S
C2561      C2562   1.369       .  A
C2561      H2564   1.083       .  S
C2562      C2563   1.381       .  A
C2562      H2565   1.083       .  S
N2566      C2570   1.371       .  A
N2566      C2567   1.369   1_554  A
N2566      C2613   1.461       .  S
C2567      C2568   1.389       .  A
C2567      C3018   1.496       .  S
C2568      H2955   1.081       .  S
C2569      H2572   1.083       .  S
H2571      C2952   1.080       .  S
O2573     Ni2579   1.943       .  S
O2573      C2594   1.277       .  A
O2574     Ni2597   1.915       .  S
O2574      C2583   1.276       .  A
O2575     Ni2579   1.866       .  S
O2575     Ni2597   1.920       .  S
O2575     Ni2591   1.888       .  S
O2575      H2598   0.967       .  S
C2576      O2593   1.271       .  A
C2576      O2585   1.271       .  A
O2577     Ni2596   1.908       .  S
O2577      C2583   1.271       .  A
O2578     Ni2596   1.954       .  S
O2578      C2580   1.275       .  A
Ni2579     O2582   1.937       .  S
Ni2579     O2584   1.894       .  S
C2580      O2590   1.259       .  A
O2581     Ni2597   1.902       .  S
O2581      C2587   1.270       .  A
O2582      C2587   1.284       .  A
C2583      C2629   1.478       .  S
O2584      C2586   1.257       .  A
O2585     Ni2596   1.904       .  S
C2586      O2592   1.282       .  A
H2588      O2589   0.966       .  S
O2589     Ni2597   1.893       .  S
O2589     Ni2591   1.892       .  S
O2589     Ni2596   1.897       .  S
O2590     Ni2591   1.888       .  S
Ni2591     O2595   1.884       .  S
Ni2591     O2593   1.919       .  S
O2592     Ni2597   1.979       .  S
C2594      C2625   1.476       .  S
C2594      O2595   1.258       .  A
O2599     Ni2605   1.962       .  S
O2599      C2620   1.281       .  A
O2600     Ni2623   1.924       .  S
O2600      C2609   1.283       .  A
O2601     Ni2605   1.883       .  S
O2601     Ni2623   1.900       .  S
O2601     Ni2617   1.919       .  S
O2601      H2624   0.966       .  S
C2602      O2619   1.287       .  A
C2602      O2611   1.274       .  A
O2603     Ni2622   1.914       .  S
O2603      C2609   1.274       .  A
O2604     Ni2622   1.952       .  S
O2604      C2606   1.276       .  A
Ni2605     O2608   1.945       .  S
Ni2605     O2610   1.897       .  S
C2606      O2616   1.265       .  A
O2607     Ni2623   1.957       .  S
O2607      C2613   1.289       .  A
O2608      C2613   1.281       .  A
C2609      C3014   1.477   1_554  S
O2610      C2612   1.275       .  A
O2611     Ni2622   1.925       .  S
C2612      O2618   1.291       .  A
H2614      O2615   0.966       .  S
O2615     Ni2623   1.930       .  S
O2615     Ni2617   1.892       .  S
O2615     Ni2622   1.907       .  S
O2616     Ni2617   1.929       .  S
Ni2617     O2621   1.880       .  S
Ni2617     O2619   1.964       .  S
O2618     Ni2623   2.000       .  S
C2620      C2626   1.471       .  S
C2620      O2621   1.258       .  A
C2625      C2626   1.337       .  D
C2625      H2627   1.087       .  S
C2626      H2628   1.086       .  S
C2629      C2630   1.354       .  D
C2629      H2631   1.086       .  S
C2630      C2993   1.475       .  S
C2630      H2632   1.087       .  S
C2633      C2634   1.362       .  D
C2633      H2635   1.081       .  S
C2634      C2951   1.495       .  S
C2634      H2636   1.086       .  S
C2637      C2638   1.356       .  D
C2637      H2639   1.086       .  S
C2638      C2937   1.492       .  S
C2641      C2642   1.375       .  D
C2641      H2643   1.087       .  S
C2642      H2644   1.088       .  S
C2645      C2646   1.358       .  D
C2645      H2647   1.087       .  S
C2646      H2648   1.087       .  S
C2649      C2650   1.350       .  D
C2649      H2651   1.087       .  S
C2650      C2910   1.476       .  S
C2650      H2652   1.087       .  S
C2653      C2654   1.358       .  D
C2653      H2655   1.085       .  S
C2654      N2856   1.447       .  S
C2654      H3040   1.088       .  S
H2656      C3038   1.088   1_556  S
C2657      C2658   1.353       .  D
C2657      H2659   1.083       .  S
C2658      H2660   1.081   1_655  S
C2661      C2662   1.340       .  D
C2661      H2663   1.087       .  S
C2662      H2664   1.086       .  S
C2665      C2666   1.338       .  D
C2665      H2667   1.087       .  S
C2666      C2819   1.479       .  S
C2666      H2668   1.086       .  S
C2669      C2670   1.361       .  D
C2669      H2671   1.085       .  S
C2670      H2672   1.085       .  S
C2673      C2674   1.331       .  D
C2673      H2675   1.087       .  S
C2674      H2676   1.088       .  S
C2677      C2678   1.329       .  D
C2677      H2679   1.087       .  S
C2678      C2764   1.459       .  S
C2678      H2680   1.089       .  S
C2681      N2710   1.448       .  S
C2681      C2682   1.359       .  D
C2681      H2683   1.086       .  S
C2682      H2684   1.085       .  S
C2685      C2686   1.361       .  D
C2685      H2687   1.086       .  S
C2686      H2688   1.085       .  S
N2689      C2693   1.374       .  A
N2689      C2690   1.361       .  A
N2689      C2750   1.460       .  S
C2690      C2691   1.371       .  A
C2690      C3069   1.478       .  S
C2691      C2692   1.362       .  A
C2691      H2694   1.076       .  S
C2692      C2693   1.388       .  A
C2692      H2695   1.084       .  S
C2693      C2996   1.510       .  S
N2696      C2700   1.351       .  A
N2696      C2697   1.350       .  A
N2696      C3070   1.448       .  S
C2697      C2698   1.380       .  A
C2697      C2731   1.464       .  S
C2698      C2699   1.376       .  A
C2698      H2701   1.082       .  S
C2699      C2700   1.389       .  A
C2699      H2702   1.083       .  S
C2700      C2960   1.460       .  S
N2703      C2704   1.354       .  A
N2703      C3066   1.449       .  S
C2704      C2705   1.383       .  A
C2704      C2730   1.479       .  S
C2705      C2706   1.372       .  A
C2705      H2708   1.083       .  S
C2707      C2790   1.482   1_455  S
N2710      C2711   1.355       .  A
C2711      C2712   1.382       .  A
C2711      C2746   1.467       .  S
C2712      C2713   1.375       .  A
C2712      H2715   1.081       .  S
C2714      C2823   1.476       .  S
O2717     Ni2723   1.941       .  S
O2717      C2738   1.281       .  A
O2718     Ni2741   1.890       .  S
O2718      C2727   1.261       .  A
O2719     Ni2723   1.900       .  S
O2719     Ni2741   1.885       .  S
O2719     Ni2735   1.886       .  S
O2719      H2742   0.966       .  S
C2720      C2930   1.456       .  S
C2720      O2737   1.267       .  A
C2720      O2729   1.276       .  A
O2721     Ni2740   1.922       .  S
O2721      C2727   1.275       .  A
O2722     Ni2740   1.934       .  S
O2722      C2724   1.272       .  A
Ni2723     O2726   1.942       .  S
Ni2723     O2728   1.920       .  S
C2724      C2777   1.483       .  S
C2724      O2734   1.269       .  A
O2725     Ni2741   1.892       .  S
O2725      C2731   1.271       .  A
O2726      C2731   1.283       .  A
C2727      C3057   1.460       .  S
O2728      C2730   1.267       .  A
O2729     Ni2740   1.909       .  S
C2730      O2736   1.270       .  A
H2732      O2733   0.967       .  S
O2733     Ni2741   1.897       .  S
O2733     Ni2735   1.891       .  S
O2733     Ni2740   1.897       .  S
O2734     Ni2735   1.913       .  S
Ni2735     O2739   1.873       .  S
Ni2735     O2737   1.911       .  S
O2736     Ni2741   1.919       .  S
C2738      C3061   1.463       .  S
C2738      O2739   1.256       .  A
O2743     Ni2749   1.948       .  S
O2743      C2764   1.282       .  A
O2744     Ni2767   1.886       .  S
O2744      C2753   1.262       .  A
O2745     Ni2749   1.879       .  S
O2745     Ni2767   1.895       .  S
O2745     Ni2761   1.892       .  S
O2745      H2768   0.966       .  S
C2746      O2763   1.279       .  A
C2746      O2755   1.276       .  A
O2747     Ni2766   1.926       .  S
O2747      C2753   1.276       .  A
O2748     Ni2766   1.943       .  S
O2748      C2750   1.281       .  A
Ni2749     O2752   1.918       .  S
Ni2749     O2754   1.931       .  S
C2750      O2760   1.265       .  A
O2751     Ni2767   1.915       .  S
O2751      C2757   1.275       .  A
O2752      C2757   1.280       .  A
C2753      C3058   1.458       .  S
O2754      C2756   1.281       .  A
O2755     Ni2766   1.907       .  S
C2756      N2936   1.468       .  S
C2756      O2762   1.276       .  A
C2757      C2770   1.458       .  S
H2758      O2759   0.966       .  S
O2759     Ni2767   1.901       .  S
O2759     Ni2761   1.898       .  S
O2759     Ni2766   1.889       .  S
O2760     Ni2761   1.932       .  S
Ni2761     O2765   1.872       .  S
Ni2761     O2763   1.936       .  S
O2762     Ni2767   1.963       .  S
C2764      O2765   1.256       .  A
N2769      C2773   1.349       .  A
N2769      C2770   1.353       .  A
N2769      C3053   1.438       .  S
C2770      C2771   1.374       .  A
C2771      C2772   1.370       .  A
C2771      H2774   1.080       .  S
C2772      C2773   1.378       .  A
C2772      H2775   1.084       .  S
C2773      C2812   1.470       .  S
N2776      C2780   1.356       .  A
N2776      C2777   1.359       .  A
N2776      C3054   1.438       .  S
C2777      C2778   1.384       .  A
C2778      C2779   1.367       .  A
C2778      H2781   1.083       .  S
C2779      C2780   1.386       .  A
C2779      H2782   1.083       .  S
C2780      C2796   1.485       .  S
O2783     Ni2789   1.964       .  S
O2783      C2804   1.284       .  A
O2784     Ni2807   1.878       .  S
O2784      C2793   1.254       .  A
O2785     Ni2789   1.923       .  S
O2785     Ni2807   1.890       .  S
O2785     Ni2801   1.883       .  S
O2785      H2808   0.966       .  S
C2786      C2843   1.472       .  S
C2786      O2803   1.266       .  A
C2786      O2795   1.281       .  A
O2787     Ni2806   1.962       .  S
O2787      C2793   1.281       .  A
O2788     Ni2806   1.919       .  S
O2788      C2790   1.269       .  A
Ni2789     O2792   1.958       .  S
Ni2789     O2794   1.945       .  S
C2790      O2800   1.275       .  A
O2791     Ni2807   1.868       .  S
O2791      C2797   1.265       .  A
O2792      C2797   1.283       .  A
C2793      C3049   1.477       .  S
O2794      C2796   1.273       .  A
O2795     Ni2806   1.950       .  S
C2796      O2802   1.263       .  A
C2797      C2850   1.477       .  S
H2798      O2799   0.967       .  S
O2799     Ni2807   1.880       .  S
O2799     Ni2801   1.895       .  S
O2799     Ni2806   1.915       .  S
O2800     Ni2801   1.923       .  S
Ni2801     O2805   1.891       .  S
Ni2801     O2803   1.874       .  S
O2802     Ni2807   1.891       .  S
C2804      C3045   1.485       .  S
C2804      O2805   1.262       .  A
O2809     Ni2815   1.973       .  S
O2809      C2830   1.284       .  A
O2810     Ni2833   1.875       .  S
O2810      C2819   1.259       .  A
O2811     Ni2815   1.889       .  S
O2811     Ni2833   1.873       .  S
O2811     Ni2827   1.887       .  S
O2811      H2834   0.966       .  S
C2812      O2829   1.277       .  A
C2812      O2821   1.289       .  A
O2813     Ni2832   1.965       .  S
O2813      C2819   1.282       .  A
O2814     Ni2832   1.911       .  S
O2814      C2816   1.269       .  A
Ni2815     O2818   1.962       .  S
Ni2815     O2820   1.901       .  S
C2816      C2857   1.463       .  S
C2816      O2826   1.266       .  A
O2817     Ni2833   1.895       .  S
O2817      C2823   1.271       .  A
O2818      C2823   1.293       .  A
O2820      C2822   1.268       .  A
O2821     Ni2832   1.948       .  S
C2822      C2836   1.459       .  S
C2822      O2828   1.271       .  A
H2824      O2825   0.966       .  S
O2825     Ni2833   1.882       .  S
O2825     Ni2827   1.873       .  S
O2825     Ni2832   1.891       .  S
O2826     Ni2827   1.912       .  S
Ni2827     O2831   1.876       .  S
Ni2827     O2829   1.905       .  S
O2828     Ni2833   1.921       .  S
C2830      C3046   1.479       .  S
C2830      O2831   1.258       .  A
N2835      C2839   1.349       .  A
N2835      C2836   1.351       .  A
N2835      C3042   1.440       .  S
C2836      C2837   1.380   1_655  A
C2837      C2838   1.365       .  A
C2837      H2840   1.080       .  S
C2838      C2839   1.376   1_455  A
C2838      H2841   1.083       .  S
C2839      C2896   1.448       .  S
N2842      C2846   1.355       .  A
N2842      C2843   1.362       .  A
N2842      C2877   1.442       .  S
C2843      C2844   1.383       .  A
C2844      C2845   1.367       .  A
C2844      H2847   1.083   1_655  S
C2845      C2846   1.383       .  A
C2845      H2848   1.080   1_655  S
C2846      C3041   1.474       .  S
N2849      C2853   1.360       .  A
N2849      C2866   1.443       .  S
C2850      C2851   1.385       .  A
C2851      C2852   1.360       .  A
C2851      H2854   1.083       .  S
C2852      H2855   1.078       .  S
C2853      C3037   1.485       .  S
N2856      C2860   1.353       .  A
C2857      C2858   1.382       .  A
C2858      H2861   1.080       .  S
C2859      C2860   1.381       .  A
C2859      H2862   1.083       .  S
C2860      C2902   1.457       .  S
O2863     Ni2869   1.924       .  S
O2863      C2884   1.279       .  A
O2864     Ni2887   1.897       .  S
O2864      C2873   1.264       .  A
O2865     Ni2869   1.894       .  S
O2865     Ni2887   1.888       .  S
O2865     Ni2881   1.901       .  S
O2865      H2888   0.967       .  S
C2866      O2883   1.277       .  A
C2866      O2875   1.267       .  A
O2867     Ni2886   1.900       .  S
O2867      C2873   1.266       .  A
O2868     Ni2886   1.913       .  S
O2868      C2870   1.276       .  A
Ni2869     O2872   1.930       .  S
Ni2869     O2874   1.937       .  S
C2870      C2923   1.518       .  S
C2870      O2880   1.290       .  A
O2871     Ni2887   1.919       .  S
O2871      C2877   1.278       .  A
O2872      C2877   1.278       .  A
C2873      C3030   1.453       .  S
O2874      C2876   1.269       .  A
O2875     Ni2886   1.911       .  S
C2876      O2882   1.267       .  A
H2878      O2879   0.965       .  S
O2879     Ni2887   1.913       .  S
O2879     Ni2881   1.900       .  S
O2879     Ni2886   1.875       .  S
O2880     Ni2881   1.990       .  S
Ni2881     O2885   1.910       .  S
Ni2881     O2883   1.946       .  S
O2882     Ni2887   1.923       .  S
C2884      C3033   1.478       .  S
C2884      O2885   1.278       .  A
O2889     Ni2895   1.943       .  S
O2889      C2910   1.276       .  A
O2890     Ni2913   1.891       .  S
O2890      C2899   1.265       .  A
O2891     Ni2895   1.900       .  S
O2891     Ni2913   1.880       .  S
O2891     Ni2907   1.909       .  S
O2891      H2914   0.967       .  S
C2892      O2909   1.280       .  A
C2892      O2901   1.271       .  A
O2893     Ni2912   1.908       .  S
O2893      C2899   1.271       .  A
O2894     Ni2912   1.905       .  S
O2894      C2896   1.269       .  A
Ni2895     O2898   1.947       .  S
Ni2895     O2900   1.905       .  S
C2896      O2906   1.271       .  A
O2897     Ni2913   1.949       .  S
O2897      C2903   1.285       .  A
O2898      C2903   1.285       .  A
C2899      C3029   1.455       .  S
O2900      C2902   1.267       .  A
O2901     Ni2912   1.923       .  S
C2902      O2908   1.272       .  A
C2903      C2919   1.499       .  S
H2904      O2905   0.966       .  S
O2905     Ni2913   1.925       .  S
O2905     Ni2907   1.879       .  S
O2905     Ni2912   1.908       .  S
O2906     Ni2907   1.910       .  S
Ni2907     O2911   1.889       .  S
Ni2907     O2909   1.919       .  S
O2908     Ni2913   1.917       .  S
C2910      O2911   1.267       .  A
N2915      C2919   1.355       .  A
N2915      C2916   1.375       .  A
N2915      C3025   1.464       .  S
C2916      C2917   1.385       .  A
C2916      C2986   1.521       .  S
C2917      C2918   1.383       .  A
C2917      H2920   1.081       .  S
C2918      C2919   1.378       .  A
C2918      H2921   1.078       .  S
N2922      C2926   1.353       .  A
N2922      C2923   1.371       .  A
N2922      C3026   1.462       .  S
C2923      C2924   1.388       .  A
C2924      C2925   1.361       .  A
C2924      H2927   1.083       .  S
C2925      C2926   1.379       .  A
C2925      H2928   1.082       .  S
C2926      C2970   1.483       .  S
N2929      C2933   1.353       .  A
C2930      C2931   1.378       .  A
C2931      H2934   1.084       .  S
C2932      C2933   1.382       .  A
C2932      H2935   1.081       .  S
C2933      C2971   1.469       .  S
N2936      C2937   1.370       .  A
C2938      C2939   1.364       .  A
C2939      C2940   1.382       .  A
C2939      H2942   1.083       .  S
C2940      C2990   1.503       .  S
N2943      C2947   1.359       .  A
N2943      C2944   1.350       .  A
N2943      C3017   1.438       .  S
C2944      C2945   1.389       .  A
C2944      C2964   1.478       .  S
C2945      C2946   1.372       .  A
C2945      H2948   1.083       .  S
C2946      C2947   1.379       .  A
C2946      H2949   1.083       .  S
N2950      C2954   1.375       .  A
N2950      C2951   1.371       .  A
N2950      C2997   1.468       .  S
C2951      C2952   1.389       .  A
C2953      H2956   1.083       .  S
O2957     Ni2963   1.936       .  S
O2957      C2978   1.278       .  A
O2958     Ni2981   1.930       .  S
O2958      C2967   1.283       .  A
O2959     Ni2963   1.862       .  S
O2959     Ni2981   1.920       .  S
O2959     Ni2975   1.890       .  S
O2959      H2982   0.967       .  S
C2960      O2977   1.273       .  A
C2960      O2969   1.270       .  A
O2961     Ni2980   1.896       .  S
O2961      C2967   1.269       .  A
O2962     Ni2980   1.956       .  S
O2962      C2964   1.274       .  A
Ni2963     O2966   1.943       .  S
Ni2963     O2968   1.891       .  S
C2964      O2974   1.257       .  A
O2965     Ni2981   1.900       .  S
O2965      C2971   1.272       .  A
O2966      C2971   1.286       .  A
C2967      C3013   1.479       .  S
O2968      C2970   1.253       .  A
O2969     Ni2980   1.895       .  S
C2970      O2976   1.287       .  A
H2972      O2973   0.965       .  S
O2973     Ni2981   1.891       .  S
O2973     Ni2975   1.891       .  S
O2973     Ni2980   1.890       .  S
O2974     Ni2975   1.893       .  S
Ni2975     O2979   1.882       .  S
Ni2975     O2977   1.933       .  S
O2976     Ni2981   2.000       .  S
C2978      C3009   1.472       .  S
C2978      O2979   1.259       .  A
O2983     Ni2989   1.954       .  S
O2983      C3004   1.281       .  A
O2984     Ni3007   1.912       .  S
O2984      C2993   1.276       .  A
O2985     Ni2989   1.893       .  S
O2985     Ni3007   1.903       .  S
O2985     Ni3001   1.928       .  S
O2985      H3008   0.966       .  S
C2986      O3003   1.290       .  A
C2986      O2995   1.276       .  A
O2987     Ni3006   1.930       .  S
O2987      C2993   1.276       .  A
O2988     Ni3006   1.960       .  S
O2988      C2990   1.278       .  A
Ni2989     O2992   1.956       .  S
Ni2989     O2994   1.914       .  S
C2990      O3000   1.269       .  A
O2991     Ni3007   1.958       .  S
O2991      C2997   1.289       .  A
O2992      C2997   1.281       .  A
O2994      C2996   1.276       .  A
O2995     Ni3006   1.941       .  S
C2996      O3002   1.282       .  A
H2998      O2999   0.966       .  S
O2999     Ni3007   1.936       .  S
O2999     Ni3001   1.897       .  S
O2999     Ni3006   1.916       .  S
O3000     Ni3001   1.939       .  S
Ni3001     O3005   1.879       .  S
Ni3001     O3003   1.982       .  S
O3002     Ni3007   1.978       .  S
C3004      C3010   1.466       .  S
C3004      O3005   1.261       .  A
C3009      C3010   1.335       .  D
C3009      H3011   1.087       .  S
C3010      H3012   1.083       .  S
C3013      C3014   1.361       .  D
C3013      H3015   1.086       .  S
C3014      H3016   1.087       .  S
C3017      C3018   1.361       .  D
C3017      H3019   1.081       .  S
C3018      H3020   1.086       .  S
C3021      C3022   1.357       .  D
C3021      H3023   1.081   1_565  S
C3025      C3026   1.393       .  D
C3025      H3027   1.086       .  S
C3026      H3028   1.086       .  S
C3029      C3030   1.343       .  D
C3029      H3031   1.086       .  S
C3030      H3032   1.088       .  S
C3033      C3034   1.352       .  D
C3033      H3035   1.087       .  S
C3034      H3036   1.087       .  S
C3037      C3038   1.361   1_556  D
C3037      H3039   1.085       .  S
C3041      C3042   1.351       .  D
C3041      H3043   1.086       .  S
C3042      H3044   1.088       .  S
C3045      C3046   1.339       .  D
C3045      H3047   1.087       .  S
C3046      H3048   1.086       .  S
C3049      C3050   1.330       .  D
C3049      H3051   1.087       .  S
C3050      H3052   1.088       .  S
C3053      C3054   1.356       .  D
C3053      H3055   1.086       .  S
C3054      H3056   1.086       .  S
C3057      C3058   1.335       .  D
C3057      H3059   1.087       .  S
C3058      H3060   1.086       .  S
C3061      C3062   1.329       .  D
C3061      H3063   1.087       .  S
C3062      H3064   1.089       .  S
C3065      C3066   1.357       .  D
C3065      H3067   1.086       .  S
C3066      H3068   1.085       .  S
C3069      C3070   1.348       .  D
C3069      H3071   1.085       .  S
C3070      H3072   1.086       .  S
