geometry optimzed in LAMMPS
_audit_creation_date              2020-12-01 
_audit_creation_method            'lammps2cif' 
_symmetry_space_group_name_H-M    'P1' 
_symmetry_Int_Tables_number       1 
_symmetry_cell_setting            triclinic 
loop_ 
_symmetry_equiv_pos_as_xyz 
  x,y,z 
_cell_length_a                    27.41335045 
_cell_length_b                    27.46346817349737 
_cell_length_c                    41.66123708422667 
_cell_angle_alpha                 88.25900795658032 
_cell_angle_beta                  92.60860874732239 
_cell_angle_gamma                 90.21368275893974 
loop_ 
_atom_site_label 
_atom_site_type_symbol 
_atom_site_fract_x 
_atom_site_fract_y 
_atom_site_fract_z 
_atom_site_charge 
N1          N  0.32304088  0.50887331  0.17346755    -0.00800
C2          C  0.34456766  0.46778461  0.16363195     0.01800
C3          C  0.38790655  0.48000537  0.14941442    -0.21100
C4          C  0.39039514  0.52998177  0.14783594    -0.21300
C5          C  0.34874633  0.54682016  0.16139161     0.01700
H6          H  0.41167318  0.45568858  0.13745572     0.15500
H7          H  0.41658822  0.55135548  0.13472980     0.15500
N8          N  0.22942108  0.49147953  0.23614591    -0.00800
C9          C  0.20367722  0.53230899  0.24176993     0.01800
C10         C  0.15808998  0.51853351  0.25221024    -0.21100
C11         C  0.15871249  0.46870590  0.25671259    -0.21300
C12         C  0.20399951  0.45311292  0.24792380     0.01700
H13         H  0.13074100  0.54241324  0.26107977     0.15500
H14         H  0.13178538  0.44730248  0.26914290     0.15500
N15         N  0.07534390  0.76371649  0.42108796    -0.00800
C16         C  0.11355419  0.78295401  0.40551061     0.01800
C17         C  0.10053139  0.82738021  0.39120610    -0.21100
C18         C  0.05177050  0.83359805  0.39612874    -0.21300
C19         C  0.03611125  0.79207653  0.41254730     0.01700
H20         H  0.12245318  0.85016180  0.37582177     0.15500
H21         H  0.02893233  0.86163407  0.38453001     0.15500
N22         N  0.05681857  0.66079682  0.98914060    -0.00800
C23         C  0.09942529  0.63745050  0.99722789     0.01800
C24         C  0.08886151  0.59181840  0.01049032    -0.21100
C25         C  0.03931237  0.59007603  0.01411239    -0.21300
C26         C  0.02067662  0.63412694  0.00224789     0.01700
H27         H  0.11485826  0.56617959  0.02161206     0.15500
H28         H  0.02028590  0.56265413  0.02799875     0.15500
O29         O  0.32056719  0.67065332  0.40608280    -0.78200
O30         O  0.25114750  0.75883272  0.26901051    -0.62900
O31         O  0.32087721  0.69745532  0.34006091    -1.09500
C32         C  0.38318666  0.85193352  0.36251160     1.08700
O33         O  0.30258585  0.81996052  0.25896314    -0.76100
O34         O  0.38647278  0.78449185  0.28618527    -0.63700
Ni35       Ni  0.28502634  0.65346316  0.36702663     1.34900
C36         C  0.41198693  0.75816721  0.30598876     0.87400
O37         O  0.26649619  0.66660162  0.28609783    -0.76700
O38         O  0.24555836  0.62848188  0.33142284    -0.86900
C39         C  0.26705430  0.79244934  0.25085906     0.87000
O40         O  0.23778578  0.70118204  0.37592882    -0.65100
O41         O  0.38439860  0.85466563  0.33204365    -0.84400
C42         C  0.21371957  0.72828598  0.35584427     0.87800
C43         C  0.24615767  0.63150956  0.30085217     1.09400
H44         H  0.27815863  0.80486658  0.33150615     0.41200
O45         O  0.30557581  0.78782664  0.32340073    -1.07100
O46         O  0.40196493  0.75245017  0.33554198    -0.63700
Ni47       Ni  0.34196059  0.75739333  0.35847853     1.26300
O48         O  0.22421797  0.73281178  0.32637134    -0.64000
O49         O  0.36092609  0.81796225  0.37698455    -0.76300
C50         C  0.35756103  0.69686478  0.41337076     0.87200
O51         O  0.37662854  0.72588172  0.39344652    -0.63400
Ni52       Ni  0.34140786  0.83296173  0.29719307     1.27400
Ni53       Ni  0.28505400  0.72761736  0.30453497     1.26100
H54         H  0.34817202  0.67996795  0.33220800     0.41700
O55         O  0.37819924  0.75184028  0.00962320    -0.78200
O56         O  0.30214665  0.81824907  0.14328663    -0.62900
O57         O  0.35677120  0.75129060  0.07495388    -1.09500
C58         C  0.20109094  0.68653130  0.05489211     1.08700
O59         O  0.24370307  0.76494593  0.15529748    -0.76100
O60         O  0.27855778  0.68284759  0.13118801    -0.63700
Ni61       Ni  0.39783368  0.78811395  0.04691298     1.34900
C62         C  0.30284153  0.65859801  0.11201444     0.87400
O63         O  0.39277291  0.80468944  0.12678202    -0.76700
O64         O  0.42530541  0.82795600  0.08075430    -0.86900
C65         C  0.27111367  0.80091683  0.16211134     0.87000
O66         O  0.34895425  0.83547949  0.03544232    -0.65100
O67         O  0.20253686  0.68441463  0.08544652    -0.84400
C68         C  0.32459358  0.85929874  0.05480955     0.87800
C69         C  0.42557991  0.82650252  0.11133928     1.09400
H70         H  0.24922986  0.79196730  0.08188769     0.41200
O71         O  0.26792178  0.76466935  0.09091601    -1.07100
O72         O  0.30375167  0.66940301  0.08204268    -0.63700
Ni73       Ni  0.29494091  0.72987309  0.05712902     1.26300
O74         O  0.32169550  0.84669189  0.08445485    -0.64000
O75         O  0.23234458  0.71031784  0.03931141    -0.76300
C76         C  0.35205249  0.71443472  0.00388909     0.87200
O77         O  0.32306928  0.69635399  0.02369266    -0.63400
Ni78       Ni  0.22718313  0.72686000  0.11863945     1.27400
Ni79       Ni  0.32998875  0.78569368  0.10899845     1.26100
H80         H  0.37554690  0.72401635  0.08399671     0.41700
N81         N  0.57263280  0.83850050  0.17651374    -0.00800
C82         C  0.53215977  0.86544919  0.16860356     0.01800
C83         C  0.54659840  0.91049789  0.15619510    -0.21100
C84         C  0.59624293  0.90842632  0.15303472    -0.21300
C85         C  0.61105696  0.86274119  0.16434446     0.01700
H86         H  0.52298714  0.93873421  0.14560537     0.15500
H87         H  0.61779842  0.93472971  0.13992199     0.15500
N88         N  0.55888080  0.74768757  0.24521449    -0.00800
C89         C  0.52260613  0.72172356  0.25877744     0.01800
C90         C  0.54133356  0.67926437  0.27310138    -0.21100
C91         C  0.59099985  0.68131654  0.27045116    -0.21300
C92         C  0.60138470  0.72534934  0.25499722     0.01700
H93         H  0.52186239  0.65218407  0.28697200     0.15500
H94         H  0.61693707  0.65640199  0.28237759     0.15500
O95         O  0.82388693  0.82440321  0.25681052    -0.78200
O96         O  0.75471395  0.74551437  0.39090756    -0.62900
O97         O  0.82474906  0.80477521  0.32367949    -1.09500
C98         C  0.89220225  0.65018196  0.31199924     1.08700
O99         O  0.81217855  0.69366668  0.40947885    -0.76100
O100        O  0.89606960  0.72551379  0.38491021    -0.63700
Ni101      Ni  0.78873403  0.84599130  0.29277067     1.34900
C102        C  0.92004373  0.75126509  0.36536328     0.87400
O103        O  0.76683501  0.83621462  0.37210409    -0.76700
O104        O  0.74988732  0.87467199  0.32499722    -0.86900
C105        C  0.77341076  0.71798370  0.41284476     0.87000
O106        O  0.73909786  0.79931090  0.28249428    -0.65100
O107        O  0.89241873  0.64953077  0.34259095    -0.84400
C108        C  0.71627653  0.77204700  0.30181003     0.87800
C109        C  0.74775569  0.87109339  0.35547934     1.09400
H110        H  0.78729731  0.69582655  0.33376171     0.41200
O111        O  0.81347864  0.71533486  0.34296359    -1.07100
O112        O  0.90856490  0.75465577  0.33534192    -0.63700
Ni113      Ni  0.84913303  0.74444804  0.30922886     1.26300
O114        O  0.72978227  0.76571387  0.33132576    -0.64000
O115        O  0.87109037  0.68326421  0.29472269    -0.76300
C116        C  0.86245761  0.79991510  0.25309006     0.87200
O117        O  0.88305570  0.77461995  0.27550709    -0.63400
Ni118      Ni  0.85039832  0.67545684  0.37408504     1.27400
Ni119      Ni  0.78905065  0.77560690  0.35739208     1.26100
H120        H  0.85102925  0.82397665  0.33306769     0.41700
O121        O  0.88339135  0.75564001  0.15985941    -0.78200
O122        O  0.79939828  0.67814133  0.02636947    -0.62900
O123        O  0.85915005  0.75190380  0.09323645    -1.09500
C124        C  0.70195383  0.81388168  0.10565845     1.08700
O125        O  0.74855781  0.73605497  0.00721518    -0.76100
O126        O  0.77377998  0.82179979  0.03309931    -0.63700
Ni127      Ni  0.90351748  0.71916538  0.12393263     1.34900
C128        C  0.80008342  0.84581963  0.05285265     0.87400
O129        O  0.89091612  0.69290042  0.04497296    -0.76700
O130        O  0.93175224  0.67964974  0.09193145    -0.86900
C131        C  0.77304396  0.69738238  0.00380532     0.87000
O132        O  0.85852541  0.66917251  0.13524641    -0.65100
O133        O  0.69868748  0.81147505  0.07512336    -0.84400
C134        C  0.83046298  0.64475189  0.11677482     0.87800
C135        C  0.92728127  0.67618241  0.06152954     1.09400
H136        H  0.75076007  0.71098961  0.08348322     0.41200
O137        O  0.76937592  0.73742411  0.07424147    -1.07100
O138        O  0.80593274  0.83342447  0.08245968    -0.63700
Ni139      Ni  0.79826518  0.77435786  0.10805269     1.26300
O140        O  0.82252031  0.65585769  0.08697529    -0.64000
O141        O  0.73691846  0.79508282  0.12265263    -0.76300
C142        C  0.85708394  0.79298016  0.16345431     0.87200
O143        O  0.82803672  0.80999229  0.14166793    -0.63400
Ni144      Ni  0.72734745  0.77211976  0.04308108     1.27400
Ni145      Ni  0.82995278  0.71402123  0.05985950     1.26100
H146        H  0.87682865  0.77856695  0.08346820     0.41700
N147        N  0.80505345  0.49616414  0.18001683    -0.00800
C148        C  0.78310875  0.53837064  0.16964181     0.01800
C149        C  0.73741442  0.52801440  0.15581780    -0.21100
C150        C  0.73367066  0.47821981  0.15475226    -0.21300
C151        C  0.77695355  0.45953738  0.16826301     0.01700
H152        H  0.71257832  0.55362256  0.14348991     0.15500
H153        H  0.70514546  0.45837856  0.14191030     0.15500
N154        N  0.90188602  0.51023478  0.24627835    -0.00800
C155        C  0.92945865  0.54774181  0.25739410     0.01800
C156        C  0.97437162  0.53032055  0.26903581    -0.21100
C157        C  0.97239885  0.48042529  0.26740380    -0.21300
C158        C  0.92607754  0.46850415  0.25518337     0.01700
H159        H  0.00302562  0.55084199  0.28125574     0.15500
H160        H  0.99892892  0.45554880  0.27875587     0.15500
N161        N  0.72511196  0.99642322  0.43081261    -0.00800
C162        C  0.70024796  0.95988906  0.41626423     0.01800
C163        C  0.65538723  0.97692875  0.40432420    -0.21100
C164        C  0.65475811  0.02611816  0.40953470    -0.21300
C165        C  0.69990190  0.03807062  0.42369779     0.01700
H166        H  0.62900109  0.95740849  0.38943563     0.15500
H167        H  0.62803549  0.05136127  0.39881070     0.15500
N168        N  0.80745477  0.00434642  0.00152103    -0.00800
C169        C  0.83630830  0.96537878  0.00958820     0.01800
C170        C  0.87795986  0.98107527  0.02647977    -0.21100
C171        C  0.87160589  0.02962567  0.03194220    -0.21300
C172        C  0.82668231  0.04254721  0.01778642     0.01700
H173        H  0.90668202  0.95850427  0.03758934     0.15500
H174        H  0.89506637  0.05160090  0.04731407     0.15500
O175        O  0.81115875  0.31890880  0.41584158    -0.78200
O176        O  0.87644045  0.24401453  0.28084982    -0.62900
O177        O  0.80998557  0.29655178  0.35026413    -1.09500
C178        C  0.74822772  0.14062297  0.36847971     1.08700
O179        O  0.82515852  0.18339656  0.26870129    -0.76100
O180        O  0.74347530  0.21860916  0.29320129    -0.63700
Ni181      Ni  0.84624223  0.33883610  0.37850543     1.34900
C182        C  0.71898739  0.24189404  0.31279021     0.87400
O183        O  0.86090048  0.33403585  0.29839345    -0.76700
O184        O  0.88462688  0.36706241  0.34470001    -0.86900
C185        C  0.85991043  0.21206747  0.26190697     0.87000
O186        O  0.89468841  0.29089625  0.38952364    -0.65100
O187        O  0.74542784  0.14264175  0.33793835    -0.84400
C188        C  0.91872480  0.26713057  0.36994568     0.87800
C189        C  0.88226045  0.36741685  0.31407638     1.09400
H190        H  0.85355273  0.19030463  0.34197967     0.41200
O191        O  0.82546175  0.20828397  0.33333031    -1.07100
O192        O  0.72961750  0.24156938  0.34292071    -0.63700
Ni193      Ni  0.79090285  0.23421440  0.36762872     1.26300
O194        O  0.90604925  0.26447791  0.34012760    -0.64000
O195        O  0.77294356  0.17118847  0.38462141    -0.76300
C196        C  0.77490517  0.29137894  0.42152958     0.87200
O197        O  0.75770234  0.26124659  0.40167443    -0.63400
Ni198      Ni  0.78754261  0.16713929  0.30517469     1.27400
Ni199      Ni  0.84415230  0.27084446  0.31571712     1.26100
H200        H  0.78189125  0.31443700  0.34149197     0.41700
O201        O  0.72976642  0.25309372  0.01713284    -0.78200
O202        O  0.81877334  0.18858033  0.15375867    -0.62900
O203        O  0.75342611  0.25763270  0.08390595    -1.09500
C204        C  0.90626625  0.32375827  0.06193400     1.08700
O205        O  0.87745149  0.24273936  0.16493372    -0.76100
O206        O  0.84043958  0.32552881  0.13845383    -0.63700
Ni207      Ni  0.70752534  0.22361188  0.05636446     1.34900
C208        C  0.81252694  0.35028447  0.11920007     0.87400
O209        O  0.72541484  0.20058577  0.13710574    -0.76700
O210        O  0.67850618  0.19082729  0.09236459    -0.86900
C211        C  0.85128103  0.20628097  0.17258138     0.87000
O212        O  0.74897810  0.16990078  0.04893425    -0.65100
O213        O  0.90984159  0.32458670  0.09245951    -0.84400
C214        C  0.78000822  0.14796118  0.06756383     0.87800
C215        C  0.68610357  0.18673322  0.12273291     1.09400
H216        H  0.86215667  0.21838325  0.09144071     0.41200
O217        O  0.84451670  0.24499152  0.10013378    -1.07100
O218        O  0.80592318  0.34040076  0.08951213    -0.63700
Ni219      Ni  0.81206874  0.28095200  0.06563145     1.26300
O220        O  0.79181432  0.16216280  0.09573314    -0.64000
O221        O  0.87171509  0.30190817  0.04712424    -0.76300
C222        C  0.75370928  0.29138579  0.01013840     0.87200
O223        O  0.77806173  0.31451658  0.03114174    -0.63400
Ni224      Ni  0.88942223  0.28143073  0.12694796     1.27400
Ni225      Ni  0.78539277  0.22189689  0.11875552     1.26100
H226        H  0.73600083  0.28433286  0.09266592     0.41700
N227        N  0.55388947  0.16551418  0.19049137    -0.00800
C228        C  0.51549314  0.14001803  0.17816880     0.01800
C229        C  0.53130583  0.09508818  0.16878027    -0.21100
C230        C  0.58130323  0.09479226  0.17357944    -0.21300
C231        C  0.59497232  0.14016571  0.18486848     0.01700
H232        H  0.50991675  0.06823255  0.15581860     0.15500
H233        H  0.60533976  0.06823496  0.16394776     0.15500
N234        N  0.56870529  0.25970365  0.25377342    -0.00800
C235        C  0.60659797  0.28768365  0.26404794     0.01800
C236        C  0.58940838  0.32900996  0.27793460    -0.21100
C237        C  0.53953567  0.32413969  0.27833269    -0.21300
C238        C  0.52776552  0.27973656  0.26493488     0.01700
H239        H  0.61099935  0.35646713  0.29017730     0.15500
H240        H  0.51547665  0.34748804  0.29081494     0.15500
N241        N  0.40178643  0.98399398  0.43500037    -0.00800
C242        C  0.42691545  0.94574430  0.42432807     0.01800
C243        C  0.47281435  0.96127865  0.41585105    -0.21100
C244        C  0.47394485  0.01098422  0.41891537    -0.21300
C245        C  0.42845719  0.02470804  0.42878239     0.01700
H246        H  0.49995762  0.94004791  0.40444380     0.15500
H247        H  0.50184518  0.03498352  0.40976966     0.15500
N248        N  0.29957650  0.01539405  0.99798942    -0.00800
C249        C  0.27401756  0.05223131  0.01008432     0.01800
C250        C  0.23154661  0.03420736  0.02273872    -0.21100
C251        C  0.23326437  0.98445366  0.02066811    -0.21300
C252        C  0.27698488  0.97342176  0.00708038     0.01700
H253        H  0.20492219  0.05432050  0.03538661     0.15500
H254        H  0.20841620  0.95904091  0.03179301     0.15500
N255        N  0.07337017  0.24080699  0.42823250    -0.00800
C256        C  0.03156593  0.21762246  0.41873258     0.01800
C257        C  0.04309701  0.17510914  0.40365632    -0.21100
C258        C  0.09277878  0.17503728  0.40091665    -0.21300
C259        C  0.11033331  0.21716599  0.41477608     0.01700
H260        H  0.01775039  0.15052849  0.39170572     0.15500
H261        H  0.11291447  0.14980736  0.38711988     0.15500
N262        N  0.04461986  0.34030302  0.99342422    -0.00800
C263        C  0.08457906  0.36777541  0.00104311     0.01800
C264        C  0.06959630  0.41260957  0.01135400    -0.21100
C265        C  0.01972317  0.41042441  0.01314576    -0.21300
C266        C  0.00534570  0.36430139  0.00383441     0.01700
H267        H  0.09277169  0.44087352  0.02136993     0.15500
H268        H  0.99754147  0.43729334  0.02409588     0.15500
O269        O  0.30958647  0.17960587  0.26566594    -0.78200
O270        O  0.38589779  0.25439889  0.40204942    -0.62900
O271        O  0.31273314  0.19966054  0.33193180    -1.09500
C272        C  0.25162882  0.35751974  0.31081255     1.08700
O273        O  0.33177687  0.31053332  0.41404827    -0.76100
O274        O  0.24609321  0.28470451  0.38631482    -0.63700
Ni275      Ni  0.34611854  0.15762745  0.30403301     1.34900
C276        C  0.22073898  0.25908412  0.36699105     0.87400
O277        O  0.36988382  0.16376138  0.38456546    -0.76700
O278        O  0.38587164  0.12802509  0.33885391    -0.86900
C279        C  0.36806691  0.28322997  0.42154972     0.87000
O280        O  0.39552468  0.20405713  0.29428646    -0.65100
O281        O  0.25433697  0.35971295  0.34127635    -0.84400
C282        C  0.42068636  0.22960496  0.31376530     0.87800
C283        C  0.38756813  0.12903243  0.36944042     1.09400
H284        H  0.35570443  0.30619687  0.33987537     0.41200
O285        O  0.32870653  0.28829619  0.34863536    -1.07100
O286        O  0.23159465  0.25363009  0.33785843    -0.63700
Ni287      Ni  0.29058132  0.26115599  0.31410616     1.26300
O288        O  0.40999989  0.23413062  0.34311492    -0.64000
O289        O  0.27038586  0.32313109  0.29602104    -0.76300
C290        C  0.27196100  0.20583541  0.25945561     0.87200
O291        O  0.25412950  0.23272231  0.27991781    -0.63400
Ni292      Ni  0.29502671  0.33116521  0.37588758     1.27400
Ni293      Ni  0.35050249  0.22644086  0.36674524     1.26100
H294        H  0.28579208  0.18147122  0.34054199     0.41700
O295        O  0.24362901  0.24972199  0.16389729    -0.78200
O296        O  0.31318489  0.32371787  0.02750560    -0.62900
O297        O  0.25996498  0.25204581  0.09739749    -1.09500
C298        C  0.41628835  0.18676228  0.11703724     1.08700
O299        O  0.37307675  0.27302479  0.01636191    -0.76100
O300        O  0.34062124  0.18764162  0.04075539    -0.63700
Ni301      Ni  0.22010265  0.28630963  0.12602270     1.34900
C302        C  0.31559056  0.16170229  0.05964489     0.87400
O303        O  0.22300896  0.30885409  0.04550106    -0.76700
O304        O  0.18932190  0.32601989  0.09162371    -0.86900
C305        C  0.34486293  0.30857077  0.00900502     0.87000
O306        O  0.26797184  0.33494628  0.13547339    -0.65100
O307        O  0.41619130  0.18812816  0.08654654    -0.84400
C308        C  0.29247886  0.35971534  0.11569574     0.87800
C309        C  0.18914746  0.32727154  0.06098554     1.09400
H310        H  0.36690167  0.29366171  0.08984479     0.41200
O311        O  0.34853781  0.26693767  0.08072139    -1.07100
O312        O  0.31238611  0.17077882  0.08937579    -0.63700
Ni313      Ni  0.32160577  0.22879738  0.11460493     1.26300
O314        O  0.29518829  0.34867922  0.08626088    -0.64000
O315        O  0.38386647  0.20766743  0.13228501    -0.76300
C316        C  0.26836599  0.21092441  0.16925279     0.87200
O317        O  0.29334970  0.19225311  0.14815155    -0.63400
Ni318      Ni  0.39038678  0.23258478  0.05325281     1.27400
Ni319      Ni  0.28615523  0.28898182  0.06274026     1.26100
H320        H  0.24073020  0.22554072  0.08872330     0.41700
C321        C  0.27299962  0.18960357  0.20201729    -0.13800
C322        C  0.25103250  0.20984675  0.22640279    -0.28900
H323        H  0.30131549  0.16241797  0.20690136     0.15300
H324        H  0.22264194  0.23692664  0.22143772     0.15800
C325        C  0.38649245  0.28108256  0.45533957    -0.13800
C326        C  0.36315752  0.30495851  0.47787913    -0.28900
H327        H  0.41236369  0.25240525  0.46242234     0.15300
H328        H  0.33686601  0.33319080  0.47064609     0.15800
C329        C  0.13195479  0.34577288  0.01301897    -0.13800
C330        C  0.14759602  0.35255457  0.04385801    -0.28900
H331        H  0.15005851  0.31966783  0.99858113     0.15300
H332        H  0.12600450  0.37528144  0.05870422     0.15800
C333        C  0.15799922  0.23977352  0.40725861    -0.13800
C334        C  0.17622548  0.23457236  0.37796789    -0.28900
H335        H  0.17568112  0.26397851  0.42434320     0.15300
H336        H  0.15650706  0.21261438  0.36039632     0.15800
C337        C  0.07833147  0.28333555  0.44772597    -0.13800
C338        C  0.05205777  0.28882660  0.47409066    -0.28900
H339        H  0.10653168  0.30982708  0.44237802     0.15300
H340        H  0.02366999  0.26260043  0.47956058     0.15800
C341        C  0.29539738  0.10031931  0.01811898    -0.13800
C342        C  0.28980064  0.11830387  0.04752041    -0.28900
H343        H  0.32013700  0.11787040  0.00172011     0.15300
H344        H  0.26757550  0.09853445  0.06451194     0.15800
C345        C  0.40548806  0.07167590  0.41717589    -0.13800
C346        C  0.41296640  0.08794459  0.38677934    -0.28900
H347        H  0.37844959  0.08887053  0.43131172     0.15300
H348        H  0.43651763  0.06693946  0.37214020     0.15800
C349        C  0.35719987  0.98059594  0.45210577    -0.13800
C350        C  0.35162349  0.00562143  0.47911904    -0.28900
H351        H  0.32986926  0.95383778  0.44496875     0.15300
H352        H  0.37913025  0.03219681  0.48625807     0.15800
C353        C  0.48322531  0.25153562  0.27323173    -0.13800
C354        C  0.46412210  0.25609875  0.30245718    -0.28900
H355        H  0.46847149  0.22490995  0.25664750     0.15300
H356        H  0.48162979  0.28040423  0.31957228     0.15800
C357        C  0.46939981  0.16327717  0.16547633    -0.13800
C358        C  0.45572906  0.15867541  0.13422737    -0.28900
H359        H  0.45101382  0.18907789  0.18000226     0.15300
H360        H  0.47746823  0.13596824  0.11945546     0.15800
C361        C  0.57321488  0.21538652  0.23647388    -0.13800
C362        C  0.55017152  0.21015050  0.20757205    -0.28900
H363        H  0.59914423  0.18786514  0.24548791     0.15300
H364        H  0.52423805  0.23776276  0.19873563     0.15800
C365        C  0.64651936  0.16316133  0.14062127    -0.13800
C366        C  0.63948190  0.16459315  0.17254312    -0.28900
H367        H  0.61929118  0.14461364  0.12557229     0.15300
H368        H  0.66328188  0.18579274  0.18832304     0.15800
C369        C  0.96035034  0.33973814  0.01541510    -0.13800
C370        C  0.94357598  0.35125809  0.04428548    -0.28900
H371        H  0.94537261  0.30854461  0.00292389     0.15300
H372        H  0.96226116  0.37933949  0.05796726     0.15800
C373        C  0.67537624  0.26920841  0.30126152    -0.13800
C374        C  0.65616920  0.26797545  0.27101041    -0.28900
H375        H  0.65615728  0.28839033  0.31930165     0.15300
H376        H  0.67294665  0.24611380  0.25325039     0.15800
C377        C  0.96352648  0.24121972  0.38132735    -0.13800
C378        C  0.98456039  0.24339735  0.41126088    -0.28900
H379        H  0.98082839  0.21997113  0.36345306     0.15300
H380        H  0.96985701  0.26717249  0.42876011     0.15800
C381        C  0.85466515  0.18697550  0.20592167    -0.13800
C382        C  0.87826058  0.21196462  0.22924431    -0.28900
H383        H  0.82866416  0.15867766  0.21223738     0.15300
H384        H  0.90389291  0.24060404  0.22294328     0.15800
C385        C  0.75435731  0.29056613  0.45352834    -0.13800
C386        C  0.77449951  0.31594760  0.47781300    -0.28900
H387        H  0.72757438  0.26232567  0.45843562     0.15300
H388        H  0.80162433  0.34387531  0.47299720     0.15800
C389        C  0.79897193  0.08641982  0.02656535    -0.13800
C390        C  0.80484042  0.10423213  0.05645068    -0.28900
H391        H  0.77231283  0.10245215  0.00934314     0.15300
H392        H  0.82997353  0.08628053  0.07386914     0.15800
C393        C  0.71937362  0.10181440  0.38404183    -0.13800
C394        C  0.72533754  0.08436456  0.41464804    -0.28900
H395        H  0.69393706  0.08336389  0.36770732     0.15300
H396        H  0.75365785  0.09911699  0.43065206     0.15800
C397        C  0.76891113  0.99116115  0.45119075    -0.13800
C398        C  0.77453114  0.01589179  0.47863284    -0.28900
H399        H  0.79595977  0.96430594  0.44557526     0.15300
H400        H  0.74720269  0.04253885  0.48410903     0.15800
C401        C  0.90766487  0.40803833  0.29752811    -0.13800
C402        C  0.90066247  0.42321560  0.26640848    -0.28900
H403        H  0.93206851  0.42901851  0.31311922     0.15300
H404        H  0.87332287  0.40597856  0.25084077     0.15800
C405        C  0.79651324  0.41122401  0.16052677    -0.13800
C406        C  0.78758494  0.39326341  0.13099466    -0.28900
H407        H  0.82312121  0.39377499  0.17717059     0.15300
H408        H  0.76334166  0.41275559  0.11375346     0.15800
C409        C  0.84952803  0.49032856  0.19970719    -0.13800
C410        C  0.85695893  0.51513331  0.22698199    -0.28900
H411        H  0.87561948  0.46268570  0.19383577     0.15300
H412        H  0.83084777  0.54281279  0.23275228     0.15800
C413        C  0.80482606  0.60157650  0.12975935    -0.13800
C414        C  0.81068888  0.58300206  0.16019114    -0.28900
H415        H  0.77975754  0.58379268  0.11286296     0.15300
H416        H  0.83796479  0.59796967  0.17686966     0.15800
C417        C  0.82520513  0.89070383  0.04234774    -0.13800
C418        C  0.81635848  0.91514050  0.01407170    -0.28900
H419        H  0.84965159  0.90646976  0.06048613     0.15300
H420        H  0.78907250  0.90152581  0.99688843     0.15800
C421        C  0.91849338  0.61052476  0.29705246    -0.13800
C422        C  0.90869622  0.59489993  0.26700426    -0.28900
H423        H  0.94348807  0.58966814  0.31306549     0.15300
H424        H  0.88046122  0.61255667  0.25172213     0.15800
C425        C  0.72104415  0.90931537  0.37151081    -0.13800
C426        C  0.72427514  0.91668820  0.40344968    -0.28900
H427        H  0.69963557  0.93436146  0.35589190     0.15300
H428        H  0.74861663  0.89468997  0.41917956     0.15800
C429        C  0.85589853  0.81492064  0.19505852    -0.13800
C430        C  0.88083226  0.79569408  0.22075613    -0.28900
H431        H  0.82746477  0.84162840  0.19822010     0.15300
H432        H  0.90934383  0.76906137  0.21764352     0.15800
C433        C  0.75194516  0.71879698  0.44445536    -0.13800
C434        C  0.77343486  0.69551609  0.46999204    -0.28900
H435        H  0.72411153  0.74604321  0.44781268     0.15300
H436        H  0.80120462  0.66822141  0.46656056     0.15800
C437        C  0.67197913  0.74567197  0.29060377    -0.13800
C438        C  0.64817785  0.75196621  0.26158313    -0.28900
H439        H  0.65705802  0.72062470  0.30831674     0.15300
H440        H  0.66026169  0.77956066  0.24448179     0.15800
C441        C  0.65464066  0.83794038  0.15270428    -0.13800
C442        C  0.66337640  0.84094049  0.12107734    -0.28900
H443        H  0.67566659  0.81335598  0.16881594     0.15300
H444        H  0.63907605  0.86264055  0.10505799     0.15800
C445        C  0.57623611  0.79466513  0.19651417    -0.13800
C446        C  0.55255361  0.79022094  0.22416917    -0.28900
H447        H  0.60293231  0.76727264  0.19120973     0.15300
H448        H  0.52592340  0.81754981  0.22968442     0.15800
C449        C  0.46551544  0.85322287  0.12817401    -0.13800
C450        C  0.48462785  0.84270788  0.15811899    -0.28900
H451        H  0.48375689  0.87998989  0.11315308     0.15300
H452        H  0.46997091  0.81265709  0.17224609     0.15800
C453        C  0.30317459  0.92668162  0.01451827    -0.13800
C454        C  0.29811781  0.90367871  0.04337730    -0.28900
H455        H  0.32965747  0.91386664  0.99813658     0.15300
H456        H  0.27438578  0.91925759  0.06053157     0.15800
C457        C  0.45592345  0.73396090  0.29512555    -0.13800
C458        C  0.47441379  0.74220480  0.26594301    -0.28900
H459        H  0.47541620  0.71051899  0.31279313     0.15300
H460        H  0.45694714  0.76809345  0.24892189     0.15800
C461        C  0.41029730  0.88964569  0.38058530    -0.13800
C462        C  0.40307758  0.90122532  0.41128175    -0.28900
H463        H  0.43490895  0.91203328  0.36663622     0.15300
H464        H  0.37549455  0.88228340  0.42482005     0.15800
C465        C  0.24667147  0.79581781  0.21770129    -0.13800
C466        C  0.27083400  0.81981826  0.19469635    -0.28900
H467        H  0.21870457  0.76931342  0.21109957     0.15300
H468        H  0.29910838  0.84602199  0.20125181     0.15800
C469        C  0.37597291  0.69828449  0.44701638    -0.13800
C470        C  0.35067878  0.67807428  0.47087098    -0.28900
H471        H  0.40484346  0.72437284  0.45253784     0.15300
H472        H  0.32159117  0.65219031  0.46542119     0.15800
C473        C  0.14463654  0.66435935  0.00772664    -0.13800
C474        C  0.16217596  0.65792159  0.03846494    -0.28900
H475        H  0.15898100  0.69320375  0.99242506     0.15300
H476        H  0.14396003  0.63201115  0.05413817     0.15800
C477        C  0.96644190  0.65069602  0.04567536    -0.13800
C478        C  0.97563147  0.65592313  0.01417192    -0.28900
H479        H  0.99135894  0.62930539  0.06144029     0.15300
H480        H  0.95394546  0.68068722  0.99858277     0.15800
C481        C  0.15696148  0.75475362  0.39703785    -0.13800
C482        C  0.17185422  0.75619970  0.36657339    -0.28900
H483        H  0.17425001  0.73019048  0.41499345     0.15300
H484        H  0.15245692  0.77901767  0.34848008     0.15800
C485        C  0.98640125  0.77135968  0.40631172    -0.13800
C486        C  0.96396627  0.77786454  0.37689069    -0.28900
H487        H  0.97185322  0.74529581  0.42351946     0.15300
H488        H  0.98079849  0.80115309  0.35896654     0.15800
C489        C  0.07664610  0.71969746  0.44099375    -0.13800
C490        C  0.05261948  0.71575861  0.46852716    -0.28900
H491        H  0.10060131  0.69029671  0.43491641     0.15300
H492        H  0.02824196  0.74469259  0.47481029     0.15800
C493        C  0.22763204  0.40789101  0.26142268    -0.13800
C494        C  0.22432767  0.39680237  0.29300616    -0.28900
H495        H  0.25227968  0.38787318  0.24701826     0.15300
H496        H  0.20273924  0.42020159  0.30742710     0.15800
C497        C  0.22786131  0.57805620  0.25309753    -0.13800
C498        C  0.21989699  0.59263524  0.28320598    -0.28900
H499        H  0.25612149  0.59523972  0.23921970     0.14500
H500        H  0.19488258  0.57154118  0.29763810     0.15800
C501        C  0.32723488  0.59545254  0.15376394    -0.13800
C502        C  0.33020168  0.61518544  0.12391463    -0.28900
H503        H  0.30368521  0.61157859  0.17079228     0.15300
H504        H  0.35119774  0.59678207  0.10641478     0.15800
C505        C  0.31735292  0.42219102  0.15614788    -0.13800
C506        C  0.31953459  0.40328429  0.12660139    -0.28900
H507        H  0.29272337  0.40679629  0.17345800     0.15300
H508        H  0.34180797  0.42130789  0.10885986     0.15800
C509        C  0.27917432  0.51290648  0.19106624    -0.13800
C510        C  0.27377782  0.48792664  0.21900568    -0.28900
H511        H  0.25182101  0.53962008  0.18301472     0.15300
H512        H  0.30098077  0.46099486  0.22694184     0.15800
N513        N  0.32100190  0.49266248  0.67135061    -0.00800
C514        C  0.34500316  0.45481711  0.65926016     0.01800
C515        C  0.38765074  0.47113195  0.64598843    -0.21100
C516        C  0.38778051  0.52093436  0.64788649    -0.21300
C517        C  0.34484714  0.53368387  0.66186308     0.01700
H518        H  0.41324055  0.44990974  0.63321057     0.15500
H519        H  0.41300770  0.54534552  0.63620767     0.15500
N520        N  0.22698194  0.51043202  0.73299050    -0.00800
C521        C  0.20055451  0.54863731  0.74224864     0.01800
C522        C  0.15511947  0.53237759  0.75113064    -0.21100
C523        C  0.15559302  0.48243653  0.74965506    -0.21300
C524        C  0.20164911  0.46935543  0.74041476     0.01700
H525        H  0.12755679  0.55355146  0.76217352     0.15500
H526        H  0.12855238  0.45831531  0.75972753     0.15500
N527        N  0.06761244  0.75213353  0.92021925    -0.00800
C528        C  0.10366781  0.77777447  0.90621966     0.01800
C529        C  0.08498054  0.82016379  0.89182227    -0.21100
C530        C  0.03538416  0.81834345  0.89485025    -0.21300
C531        C  0.02511581  0.77447308  0.91055246     0.01700
H532        H  0.10431830  0.84667450  0.87740841     0.15500
H533        H  0.00930163  0.84278361  0.88260022     0.15500
N534        N  0.05430963  0.67101873  0.48764625    -0.00800
C535        C  0.09406904  0.64292095  0.49519027     0.01800
C536        C  0.07868608  0.59760876  0.50644873    -0.21100
C537        C  0.02891573  0.60016262  0.50884308    -0.21300
C538        C  0.01508899  0.64672387  0.49863370     0.01700
H539        H  0.10167680  0.56872771  0.51684154     0.15500
H540        H  0.00659938  0.57348311  0.52104195     0.15500
O541        O  0.32047711  0.68519242  0.90759430    -0.78200
O542        O  0.24752199  0.76858435  0.77004438    -0.62900
O543        O  0.31923565  0.71021223  0.84133486    -1.09500
C544        C  0.37693041  0.86811990  0.86099331     1.08700
O545        O  0.30293120  0.82418602  0.75689241    -0.76100
O546        O  0.38643025  0.79763308  0.78708439    -0.63700
Ni547      Ni  0.28524699  0.66570497  0.86908532     1.34900
C548        C  0.41080103  0.77092488  0.80721312     0.87400
O549        O  0.26349118  0.67748966  0.78854701    -0.76700
O550        O  0.24600289  0.63848740  0.83430500    -0.86900
C551        C  0.26667011  0.79700972  0.74977145     0.87000
O552        O  0.23632716  0.71159062  0.87763422    -0.65100
O553        O  0.37649758  0.87129679  0.83043371    -0.84400
C554        C  0.21134932  0.73797870  0.85762477     0.87800
C555        C  0.24461294  0.64207170  0.80375533     1.09400
H556        H  0.27548654  0.81702667  0.83094633     0.41200
O557        O  0.30293717  0.79973134  0.82307092    -1.07100
O558        O  0.39994004  0.76561039  0.83653947    -0.63700
Ni559      Ni  0.33964513  0.77117401  0.85873043     1.26300
O560        O  0.22217923  0.74426185  0.82830615    -0.64000
O561        O  0.35789421  0.83264849  0.87605674    -0.76300
C562        C  0.35668783  0.71263257  0.91441741     0.87200
O563        O  0.37477135  0.74168637  0.89416567    -0.63400
Ni564      Ni  0.33763415  0.84389610  0.79545829     1.27400
Ni565      Ni  0.28228121  0.73883591  0.80573351     1.26100
H566        H  0.34670155  0.69309169  0.83334908     0.41700
O567        O  0.38009528  0.73521686  0.50860617    -0.78200
O568        O  0.30602821  0.80886979  0.64088336    -0.62900
O569        O  0.35887315  0.73694797  0.57410219    -1.09500
C570        C  0.19910640  0.68021299  0.55400384     1.08700
O571        O  0.24795177  0.75633409  0.65472690    -0.76100
O572        O  0.27446484  0.67092913  0.63047993    -0.63700
Ni573      Ni  0.40129044  0.77144315  0.54558017     1.34900
C574        C  0.29839180  0.64565192  0.61169385     0.87400
O575        O  0.39623265  0.79176333  0.62515630    -0.76700
O576        O  0.43072880  0.81081759  0.57904232    -0.86900
C577        C  0.27558993  0.79260552  0.66045794     0.87000
O578        O  0.35425292  0.82055281  0.53341537    -0.65100
O579        O  0.19887070  0.67981162  0.58454564    -0.84400
C580        C  0.32991123  0.84530966  0.55229352     0.87800
C581        C  0.43025176  0.81124962  0.60959038     1.09400
H582        H  0.25298561  0.78172682  0.58015261     0.41200
O583        O  0.27053147  0.75406508  0.58970694    -1.07100
O584        O  0.30216788  0.65707974  0.58195842    -0.63700
Ni585      Ni  0.29628494  0.71726507  0.55637867     1.26300
O586        O  0.32673051  0.83385852  0.58204836    -0.64000
O587        O  0.23311675  0.69990125  0.53857170    -0.76300
C588        C  0.35259901  0.69871102  0.50307736     0.87200
O589        O  0.32325784  0.68186520  0.52314693    -0.63400
Ni590      Ni  0.22758105  0.71972955  0.61790072     1.27400
Ni591      Ni  0.33310458  0.77375003  0.60751159     1.26100
H592        H  0.37649731  0.70929708  0.58358002     0.41700
N593        N  0.56914622  0.83860018  0.67853640    -0.00800
C594        C  0.52689338  0.86229225  0.67008539     0.01800
C595        C  0.53800301  0.90802796  0.65730684    -0.21100
C596        C  0.58781919  0.90989797  0.65482705    -0.21300
C597        C  0.60594039  0.86550821  0.66653359     0.01700
H598        H  0.51241041  0.93352488  0.64559844     0.15500
H599        H  0.60746172  0.93749920  0.64148876     0.15500
N600        N  0.55349170  0.74451300  0.74506208    -0.00800
C601        C  0.51496024  0.72246273  0.75867740     0.01800
C602        C  0.52882505  0.67775112  0.77212351    -0.21100
C603        C  0.57821865  0.67399737  0.76869689    -0.21300
C604        C  0.59333431  0.71715273  0.75394025     0.01700
H605        H  0.50665906  0.65295250  0.78598231     0.15500
H606        H  0.60127557  0.64581268  0.77989497     0.15500
O607        O  0.81940060  0.81406924  0.76005881    -0.78200
O608        O  0.74868100  0.72190373  0.89171147    -0.62900
O609        O  0.81794788  0.78362604  0.82482901    -1.09500
C610        C  0.87886492  0.62728145  0.80767899     1.08700
O611        O  0.80741996  0.67055551  0.90882908    -0.76100
O612        O  0.89023206  0.69877493  0.88177857    -0.63700
Ni613      Ni  0.78143432  0.82795031  0.79624808     1.34900
C614        C  0.91356871  0.72488054  0.86209598     0.87400
O615        O  0.76261117  0.81407986  0.87524663    -0.76700
O616        O  0.73952894  0.85062554  0.82879315    -0.86900
C617        C  0.76927494  0.69519793  0.91345764     0.87000
O618        O  0.73512697  0.77969320  0.78332863    -0.65100
O619        O  0.87936040  0.62475592  0.83829915    -0.84400
C620        C  0.71082016  0.75274999  0.80205664     0.87800
C621        C  0.74071180  0.84807453  0.85934528     1.09400
H622        H  0.77746078  0.67506615  0.83304585     0.41200
O623        O  0.80458579  0.69353568  0.84202822    -1.07100
O624        O  0.90040530  0.73000468  0.83241285    -0.63700
Ni625      Ni  0.83906011  0.72317309  0.80782859     1.26300
O626        O  0.72245975  0.74658429  0.83199871    -0.64000
O627        O  0.85839957  0.66188766  0.79132152    -0.76300
C628        C  0.85527116  0.78704224  0.75421783     0.87200
O629        O  0.87165440  0.75395959  0.77351661    -0.63400
Ni630      Ni  0.84147819  0.65132555  0.87169375     1.27400
Ni631      Ni  0.78246197  0.75346314  0.85834438     1.26100
H632        H  0.84534220  0.80120997  0.83425931     0.41700
O633        O  0.88219814  0.76385063  0.65923435    -0.78200
O634        O  0.79916854  0.69599943  0.52393174    -0.62900
O635        O  0.85703700  0.76530867  0.59314741    -1.09500
C636        C  0.69957767  0.82376846  0.60745241     1.08700
O637        O  0.74423084  0.75141456  0.50694694    -0.76100
O638        O  0.77216618  0.83475423  0.53467214    -0.63700
Ni639      Ni  0.90059900  0.72907650  0.62243086     1.34900
C640        C  0.79767653  0.85866506  0.55489942     0.87400
O641        O  0.88996663  0.71234689  0.54259220    -0.76700
O642        O  0.92697027  0.69020166  0.58935085    -0.86900
C643        C  0.77074176  0.71454459  0.50236901     0.87000
O644        O  0.85306924  0.68079988  0.63232978    -0.65100
O645        O  0.69728116  0.82445880  0.57682862    -0.84400
C646        C  0.82701801  0.65694978  0.61236683     0.87800
C647        C  0.92430062  0.69124837  0.55876146     1.09400
H648        H  0.74953726  0.72257030  0.58214041     0.41200
O649        O  0.76743957  0.75019877  0.57377038    -1.07100
O650        O  0.80211595  0.84627086  0.58466622    -0.63700
Ni651      Ni  0.79575164  0.78520495  0.60879047     1.26300
O652        O  0.82223698  0.66925646  0.58263815    -0.64000
O653        O  0.73399405  0.80328575  0.62402906    -0.76300
C654        C  0.85481710  0.79952456  0.66491871     0.87200
O655        O  0.82497931  0.81823448  0.64409309    -0.63400
Ni656      Ni  0.72464357  0.78610454  0.54382459     1.27400
Ni657      Ni  0.82853295  0.73011687  0.55833172     1.26100
H658        H  0.87471783  0.79298826  0.58467365     0.41700
N659        N  0.80766670  0.50611596  0.67466033    -0.00800
C660        C  0.78343548  0.54430401  0.66018767     0.01800
C661        C  0.74066560  0.52816975  0.64506388    -0.21100
C662        C  0.74080567  0.47824575  0.64830376    -0.21300
C663        C  0.78403292  0.46518492  0.66493022     0.01700
H664        H  0.71483486  0.54968407  0.63027928     0.15500
H665        H  0.71539396  0.45411572  0.63600703     0.15500
N666        N  0.89858423  0.48777727  0.74440368    -0.00800
C667        C  0.92395165  0.52888215  0.75167789     0.01800
C668        C  0.96933555  0.51570361  0.76530520    -0.21100
C669        C  0.96907514  0.46587401  0.76970594    -0.21300
C670        C  0.92404399  0.44969044  0.75795693     0.01700
H671        H  0.99622660  0.53994724  0.77606843     0.15500
H672        H  0.99606438  0.44480762  0.78383630     0.15500
N673        N  0.71962969  0.98144821  0.93107641    -0.00800
C674        C  0.69600189  0.94280301  0.91797988     0.01800
C675        C  0.65051924  0.95768803  0.90558215    -0.21100
C676        C  0.64854595  0.00735826  0.90851568    -0.21300
C677        C  0.69299524  0.02168698  0.92245498     0.01700
H678        H  0.62441849  0.93612567  0.89181700     0.15500
H679        H  0.62114064  0.03095804  0.89684816     0.15500
N680        N  0.81856916  0.01206193  0.49889192    -0.00800
C681        C  0.84382460  0.97113956  0.50791240     0.01800
C682        C  0.88726264  0.98399990  0.52387328    -0.21100
C683        C  0.88596619  0.03349992  0.52750591    -0.21300
C684        C  0.84202516  0.04950746  0.51339421     0.01700
H685        H  0.91350171  0.95947628  0.53588270     0.15500
H686        H  0.91148405  0.05431432  0.54222057     0.15500
O687        O  0.79942892  0.30446604  0.91616211    -0.78200
O688        O  0.87529474  0.22696222  0.78567406    -0.62900
O689        O  0.80248664  0.28188873  0.85092829    -1.09500
C690        C  0.73949016  0.12445230  0.86657988     1.08700
O691        O  0.81819596  0.17533737  0.76799551    -0.76100
O692        O  0.73381646  0.20302188  0.79229706    -0.63700
Ni693      Ni  0.83683069  0.32453947  0.88018342     1.34900
C694        C  0.70900986  0.22673638  0.81143269     0.87400
O695        O  0.86027208  0.31720018  0.80159756    -0.76700
O696        O  0.87765458  0.35298158  0.84793810    -0.86900
C697        C  0.85655617  0.20064304  0.76406886     0.87000
O698        O  0.88578525  0.27805465  0.89324329    -0.65100
O699        O  0.73994116  0.12515685  0.83600761    -0.84400
C700        C  0.91051168  0.25256028  0.87501550     0.87800
C701        C  0.87949489  0.35136503  0.81755245     1.09400
H702        H  0.84355908  0.17440790  0.84365871     0.41200
O703        O  0.81680652  0.19349036  0.83413804    -1.07100
O704        O  0.72025848  0.22859093  0.84145499    -0.63700
Ni705      Ni  0.78050899  0.21978525  0.86742093     1.26300
O706        O  0.89858394  0.24676443  0.84537471    -0.64000
O707        O  0.76034086  0.15694071  0.88337025    -0.76300
C708        C  0.76271624  0.27728869  0.92108618     0.87200
O709        O  0.74620735  0.24706870  0.90100865    -0.63400
Ni710      Ni  0.78091855  0.15392110  0.80388148     1.27400
Ni711      Ni  0.83965126  0.25510802  0.81818021     1.26100
H712        H  0.77549722  0.29995039  0.84084316     0.41700
O713        O  0.74324233  0.26221168  0.51740458    -0.78200
O714        O  0.82929056  0.18525659  0.65276063    -0.62900
O715        O  0.76784828  0.25971283  0.58411110    -1.09500
C716        C  0.92634030  0.31884706  0.56710134     1.08700
O717        O  0.88064363  0.24306300  0.66947188    -0.76100
O718        O  0.85635900  0.32914237  0.64063190    -0.63700
Ni719      Ni  0.72321140  0.22648974  0.55501601     1.34900
C720        C  0.82941761  0.35345930  0.62051483     0.87400
O721        O  0.73713849  0.19950287  0.63494624    -0.76700
O722        O  0.69560282  0.18658485  0.58872300    -0.86900
C723        C  0.85637803  0.20409829  0.67432528     0.87000
O724        O  0.76852811  0.17739431  0.54538666    -0.65100
O725        O  0.93016775  0.31741524  0.59775617    -0.84400
C726        C  0.79711252  0.15313187  0.56444624     0.87800
C727        C  0.70073625  0.18230476  0.61919981     1.09400
H728        H  0.87605425  0.21860422  0.59411900     0.41200
O729        O  0.85791183  0.24502751  0.60266343    -1.07100
O730        O  0.82239249  0.34143447  0.59130698    -0.63700
Ni731      Ni  0.82855901  0.28208589  0.56770708     1.26300
O732        O  0.80491258  0.16350490  0.59386243    -0.64000
O733        O  0.88984563  0.30165613  0.55143741    -0.76300
C734        C  0.77052969  0.29854944  0.51134827     0.87200
O735        O  0.79838360  0.31744227  0.53249812    -0.63400
Ni736      Ni  0.90152017  0.27888000  0.63191036     1.27400
Ni737      Ni  0.79776542  0.22146069  0.61862442     1.26100
H738        H  0.75048428  0.28635430  0.59298600     0.41700
N739        N  0.57146817  0.15869458  0.69141442    -0.00800
C740        C  0.53058885  0.13208050  0.68469463     0.01800
C741        C  0.54441275  0.08677998  0.67425908    -0.21100
C742        C  0.59405591  0.08843709  0.67083197    -0.21300
C743        C  0.60954079  0.13407983  0.68014723     0.01700
H744        H  0.52037668  0.05875624  0.66481818     0.15500
H745        H  0.61512612  0.06190969  0.65870078     0.15500
N746        N  0.55688033  0.25568641  0.75235770    -0.00800
C747        C  0.59947265  0.27863163  0.76033902     0.01800
C748        C  0.58949394  0.32316733  0.77334740    -0.21100
C749        C  0.53982432  0.32531025  0.77615094    -0.21300
C750        C  0.52086013  0.28210801  0.76464495     0.01700
H751        H  0.61579657  0.34809692  0.78401151     0.15500
H752        H  0.52060950  0.35281652  0.78864611     0.15500
N753        N  0.39205340  0.00141364  0.93460416    -0.00800
C754        C  0.41695380  0.96424826  0.92232126     0.01800
C755        C  0.46279291  0.98035564  0.91424804    -0.21100
C756        C  0.46440116  0.02948780  0.91950729    -0.21300
C757        C  0.41885867  0.04253512  0.92978913     0.01700
H758        H  0.49012098  0.95993591  0.90243000     0.15500
H759        H  0.49345186  0.05363954  0.91228708     0.15500
N760        N  0.30808423  0.00075712  0.49728454    -0.00800
C761        C  0.28483643  0.03723915  0.51159010     0.01800
C762        C  0.24125986  0.02020906  0.52314758    -0.21100
C763        C  0.23991669  0.97101768  0.51817256    -0.21300
C764        C  0.28312574  0.95921774  0.50416687     0.01700
H765        H  0.21583892  0.04006625  0.53693059     0.15500
H766        H  0.21383466  0.94577239  0.52818339     0.15500
N767        N  0.06923918  0.24930624  0.92960502    -0.00800
C768        C  0.03024308  0.22016229  0.92261629     0.01800
C769        C  0.04623976  0.17793199  0.90899147    -0.21100
C770        C  0.09503266  0.18406223  0.90407913    -0.21300
C771        C  0.10779939  0.22935869  0.91544240     0.01700
H772        H  0.02377176  0.14882624  0.89940129     0.15500
H773        H  0.11731776  0.16021983  0.89065079     0.15500
N774        N  0.05773047  0.33171421  0.49320648    -0.00800
C775        C  0.09973266  0.35678772  0.49933448     0.01800
C776        C  0.08826041  0.40220429  0.51062182    -0.21100
C777        C  0.03884933  0.40235281  0.51486628    -0.21300
C778        C  0.02117584  0.35741047  0.50557065     0.01700
H779        H  0.11380733  0.42895894  0.52000995     0.15500
H780        H  0.01939743  0.42961442  0.52744631     0.15500
O781        O  0.30346232  0.18402444  0.77072502    -0.78200
O782        O  0.37550907  0.28087449  0.90158864    -0.62900
O783        O  0.30522690  0.21674371  0.83406641    -1.09500
C784        C  0.24498221  0.37239935  0.80431159     1.08700
O785        O  0.31857411  0.33542968  0.91109594    -0.76100
O786        O  0.23603785  0.30466990  0.88230072    -0.63700
Ni787      Ni  0.34083946  0.17104996  0.81003749     1.34900
C788        C  0.21189799  0.27710046  0.86360223     0.87400
O789        O  0.36104592  0.18800331  0.88939195    -0.76700
O790        O  0.38284211  0.14965823  0.84612117    -0.86900
C791        C  0.35563937  0.31000062  0.91995304     0.87000
O792        O  0.38681352  0.21867867  0.79712794    -0.65100
O793        O  0.24455186  0.37612427  0.83465902    -0.84400
C794        C  0.41183604  0.24631720  0.81534371     0.87800
C795        C  0.38278443  0.15364390  0.87641612     1.09400
H796        H  0.34686197  0.32505430  0.83787639     0.41200
O797        O  0.31964074  0.30743172  0.84657616    -1.07100
O798        O  0.22318995  0.27072785  0.83457115    -0.63700
Ni799      Ni  0.28417881  0.27642036  0.81237292     1.26300
O800        O  0.40144992  0.25352159  0.84447872    -0.64000
O801        O  0.26511569  0.33703559  0.79119508    -0.76300
C802        C  0.26829450  0.21138142  0.76093942     0.87200
O803        O  0.25118369  0.24437786  0.77778660    -0.63400
Ni804      Ni  0.28370653  0.35186435  0.87129078     1.27400
Ni805      Ni  0.34142692  0.24811361  0.86785662     1.26100
H806        H  0.27785646  0.19970453  0.84303146     0.41700
O807        O  0.24657228  0.23600950  0.66312325    -0.78200
O808        O  0.32751194  0.30075230  0.52791998    -0.62900
O809        O  0.26991034  0.23386804  0.59818661    -1.09500
C810        C  0.42612300  0.17210231  0.62459394     1.08700
O811        O  0.38983839  0.25098590  0.52025981    -0.76100
O812        O  0.35497493  0.16781765  0.54615118    -0.63700
Ni813      Ni  0.22806422  0.27081867  0.62399115     1.34900
C814        C  0.32858294  0.14272902  0.56467758     0.87400
O815        O  0.23582885  0.28744740  0.54349718    -0.76700
O816        O  0.20202043  0.31011835  0.58828304    -0.86900
C817        C  0.36105926  0.28525180  0.51099662     0.87000
O818        O  0.27705904  0.31785847  0.63391399    -0.65100
O819        O  0.42699437  0.17048815  0.59418339    -0.84400
C820        C  0.30196036  0.34185645  0.61395431     0.87800
C821        C  0.20290134  0.30951559  0.55783423     1.09400
H822        H  0.37702735  0.27611803  0.59237796     0.41200
O823        O  0.35958857  0.24842188  0.58370455    -1.07100
O824        O  0.32401996  0.15256786  0.59430622    -0.63700
Ni825      Ni  0.33093548  0.21275317  0.61814154     1.26300
O826        O  0.30529898  0.32971534  0.58482373    -0.64000
O827        O  0.39276533  0.19409239  0.63833135    -0.76300
C828        C  0.27257027  0.19930738  0.67164407     0.87200
O829        O  0.30100799  0.17932168  0.65287498    -0.63400
Ni830      Ni  0.40410730  0.21290255  0.55888387     1.27400
Ni831      Ni  0.29816440  0.26841984  0.56315229     1.26100
H832        H  0.25146409  0.20648152  0.59003112     0.41700
C833        C  0.27377528  0.18314053  0.70572509    -0.13800
C834        C  0.24966231  0.20821346  0.72738029    -0.28900
H835        H  0.30185952  0.15713323  0.71376554     0.15300
H836        H  0.22191208  0.23450593  0.71921178     0.15800
C837        C  0.37265544  0.30977603  0.95391847    -0.13800
C838        C  0.34555581  0.32986875  0.97620375    -0.28900
H839        H  0.40147742  0.28416799  0.96126646     0.15300
H840        H  0.31651670  0.35524767  0.96889041     0.15800
C841        C  0.14621404  0.33155022  0.50993769    -0.13800
C842        C  0.16412986  0.33803417  0.54024199    -0.28900
H843        H  0.16073362  0.30307919  0.49561951     0.15300
H844        H  0.14556178  0.36335814  0.55507301     0.15800
C845        C  0.15178636  0.25661733  0.90536499    -0.13800
C846        C  0.16892129  0.25095222  0.87571982    -0.28900
H847        H  0.16815225  0.28331434  0.92127554     0.15300
H848        H  0.15041926  0.22619552  0.85932407     0.15800
C849        C  0.07041648  0.29257638  0.94868717    -0.13800
C850        C  0.04324440  0.29657412  0.97486810    -0.28900
H851        H  0.09643563  0.32119412  0.94319772     0.15300
H852        H  0.01712006  0.26818594  0.98057759     0.15800
C853        C  0.30863325  0.08321381  0.52192706    -0.13800
C854        C  0.30257205  0.09985312  0.55173918    -0.28900
H855        H  0.33453882  0.10082006  0.50636614     0.15300
H856        H  0.27886965  0.08026159  0.56788644     0.15800
C857        C  0.39574646  0.09078117  0.92091454    -0.13800
C858        C  0.41211650  0.11763720  0.89582658    -0.28900
H859        H  0.36034720  0.09905730  0.93006522     0.15300
H860        H  0.44489246  0.10646253  0.88448028     0.15800
C861        C  0.34833037  0.99632912  0.95253488    -0.13800
C862        C  0.34290979  0.02086276  0.97974194    -0.28900
H863        H  0.32142279  0.96900289  0.94567556     0.15300
H864        H  0.36981585  0.04815500  0.98667056     0.15800
C865        C  0.47311105  0.26156009  0.77375707    -0.13800
C866        C  0.45551801  0.27050540  0.80280127    -0.28900
H867        H  0.45523728  0.23505506  0.75835386     0.15300
H868        H  0.47531195  0.29475031  0.81890965     0.15800
C869        C  0.48346078  0.15521714  0.67296193    -0.13800
C870        C  0.46511402  0.14510475  0.64316357    -0.28900
H871        H  0.46867907  0.18514854  0.68587492     0.15300
H872        H  0.48368826  0.11845028  0.62938128     0.15800
C873        C  0.55068188  0.21129350  0.73484126    -0.13800
C874        C  0.57522989  0.20401809  0.70803886    -0.28900
H875        H  0.52371510  0.18470368  0.74227830     0.15300
H876        H  0.60226849  0.23068466  0.70082729     0.15800
C877        C  0.66240350  0.15502269  0.63600688    -0.13800
C878        C  0.65358731  0.15838459  0.66748279    -0.28900
H879        H  0.63783911  0.13333957  0.62095410     0.15300
H880        H  0.67472784  0.18316331  0.68246985     0.15800
C881        C  0.97657869  0.33494514  0.51892635    -0.13800
C882        C  0.96620007  0.34282313  0.54979810    -0.28900
H883        H  0.95565029  0.30861193  0.50504601     0.15300
H884        H  0.99045003  0.36578367  0.56415975     0.15800
C885        C  0.66501722  0.25348897  0.79921871    -0.13800
C886        C  0.64570058  0.25208101  0.76879915    -0.28900
H887        H  0.64679188  0.27475344  0.81669797     0.15300
H888        H  0.66116849  0.22854100  0.75145605     0.15800
C889        C  0.95575409  0.22865558  0.88771206    -0.13800
C890        C  0.98000530  0.23954251  0.91560423    -0.28900
H891        H  0.97188144  0.20359516  0.87157492     0.15300
H892        H  0.96603966  0.26762601  0.93046503     0.15800
C893        C  0.85464575  0.18278410  0.70697054    -0.13800
C894        C  0.87695201  0.20430854  0.73210695    -0.28900
H895        H  0.82739018  0.15463734  0.71093987     0.15300
H896        H  0.90444508  0.23222416  0.72817968     0.15800
C897        C  0.74082131  0.27755542  0.95261229    -0.13800
C898        C  0.75884219  0.30568450  0.97620235    -0.28900
H899        H  0.71475044  0.24883130  0.95792826     0.15300
H900        H  0.78487488  0.33444295  0.97088693     0.15800
C901        C  0.81764230  0.09503125  0.52220801    -0.13800
C902        C  0.82286205  0.11072487  0.55257288    -0.28900
H903        H  0.79206897  0.11279342  0.50500140     0.15300
H904        H  0.84650747  0.09090406  0.57001857     0.15800
C905        C  0.71204244  0.08410633  0.88171257    -0.13800
C906        C  0.71659093  0.06864131  0.91282333    -0.28900
H907        H  0.68926599  0.06315182  0.86510437     0.15300
H908        H  0.74248823  0.08605788  0.92932329     0.15800
C909        C  0.76246681  0.97946690  0.95257082    -0.13800
C910        C  0.76498774  0.00565308  0.97962636    -0.28900
H911        H  0.79132454  0.95393835  0.94808302     0.15300
H912        H  0.73582923  0.03100126  0.98382444     0.15800
C913        C  0.90629850  0.39107756  0.80130706    -0.13800
C914        C  0.90073991  0.40395979  0.76982562    -0.28900
H915        H  0.92913885  0.41354281  0.81695193     0.15300
H916        H  0.87470534  0.38490431  0.75427449     0.15800
C917        C  0.80924887  0.41822711  0.65955811    -0.13800
C918        C  0.80441271  0.39787459  0.63036549    -0.28900
H919        H  0.83467024  0.40311852  0.67793570     0.15300
H920        H  0.78129921  0.41562154  0.61166947     0.15800
C921        C  0.85081685  0.50961327  0.69562590    -0.13800
C922        C  0.85513406  0.48400684  0.72373781    -0.28900
H923        H  0.87848871  0.53652420  0.68995309     0.15300
H924        H  0.82765640  0.45692004  0.72945915     0.15800
C925        C  0.80129961  0.61254651  0.62315146    -0.13800
C926        C  0.80617889  0.59236972  0.65305167    -0.28900
H927        H  0.77883486  0.59443274  0.60493902     0.15300
H928        H  0.83088624  0.60835902  0.67094077     0.15800
C929        C  0.82352066  0.90307638  0.54434349    -0.13800
C930        C  0.81956932  0.92357231  0.51442301    -0.28900
H931        H  0.84588842  0.92074299  0.56281487     0.15300
H932        H  0.79472229  0.90841970  0.49628802     0.15800
C933        C  0.90517148  0.58810532  0.79208577    -0.13800
C934        C  0.89923797  0.57437196  0.76120387    -0.28900
H935        H  0.92884519  0.56635655  0.80846935     0.15300
H936        H  0.87246296  0.59224896  0.74489407     0.15800
C937        C  0.71378368  0.88605243  0.87566154    -0.13800
C938        C  0.72119118  0.89880605  0.90663056    -0.28900
H939        H  0.68877448  0.90758478  0.86006915     0.15300
H940        H  0.74922692  0.88088799  0.92193380     0.15800
C941        C  0.85336118  0.81617937  0.69803608    -0.13800
C942        C  0.87594625  0.79056898  0.72234342    -0.28900
H943        H  0.82539141  0.84254214  0.70296888     0.15300
H944        H  0.90360511  0.76392012  0.71733519     0.15800
C945        C  0.75116309  0.69776237  0.94605525    -0.13800
C946        C  0.77549093  0.67707627  0.97161451    -0.28900
H947        H  0.72267762  0.72422929  0.94963394     0.15300
H948        H  0.80380777  0.65038162  0.96815515     0.15800
C949        C  0.66648356  0.72772532  0.78959314    -0.13800
C950        C  0.64258104  0.73852629  0.76110195    -0.28900
H951        H  0.65081361  0.70150918  0.80623758     0.15300
H952        H  0.65590963  0.76753483  0.74550450     0.15800
C953        C  0.65101870  0.84362410  0.65482245    -0.13800
C954        C  0.66041335  0.84903885  0.62339230    -0.28900
H955        H  0.67240776  0.81863734  0.67043109     0.15300
H956        H  0.63587077  0.87097622  0.60769724     0.15800
C957        C  0.57469333  0.79453737  0.69816856    -0.13800
C958        C  0.55098907  0.78909537  0.72573636    -0.28900
H959        H  0.60078478  0.76717646  0.69184746     0.15300
H960        H  0.52522523  0.81699798  0.73169884     0.15800
C961        C  0.47090422  0.83729805  0.62626534    -0.13800
C962        C  0.48229706  0.83587438  0.65823291    -0.28900
H963        H  0.49448628  0.85800670  0.61054661     0.15300
H964        H  0.46213607  0.81270962  0.67455921     0.15800
C965        C  0.30772094  0.91147408  0.51110702    -0.13800
C966        C  0.30367037  0.88955139  0.54037105    -0.28900
H967        H  0.33302199  0.89753122  0.49434077     0.15300
H968        H  0.28099716  0.90623338  0.55770301     0.15800
C969        C  0.45367881  0.74456097  0.79670169    -0.13800
C970        C  0.46983117  0.74811661  0.76661656    -0.28900
H971        H  0.47314072  0.72164047  0.81471379     0.15300
H972        H  0.45250821  0.77297096  0.74885244     0.15800
C973        C  0.40224317  0.90734652  0.87868691    -0.13800
C974        C  0.39359925  0.91963445  0.90906020    -0.28900
H975        H  0.42683188  0.92983812  0.86479947     0.15300
H976        H  0.36578432  0.90057574  0.92232357     0.15800
C977        C  0.24969017  0.79395708  0.71595437    -0.13800
C978        C  0.27587681  0.81387782  0.69238934    -0.28900
H979        H  0.22149764  0.76721133  0.71031801     0.15300
H980        H  0.30436644  0.84032037  0.69802406     0.15800
C981        C  0.37520969  0.71534599  0.94789706    -0.13800
C982        C  0.35114831  0.69384013  0.97179259    -0.28900
H983        H  0.40266733  0.74295951  0.95323831     0.15300
H984        H  0.32345334  0.66644278  0.96646997     0.15800
C985        C  0.14179273  0.66421090  0.50641609    -0.13800
C986        C  0.15814759  0.65507739  0.53712814    -0.28900
H987        H  0.15914312  0.69206198  0.49177785     0.15300
H988        H  0.13720037  0.63066086  0.55226655     0.15800
C989        C  0.96241679  0.66520777  0.54232799    -0.13800
C990        C  0.97200209  0.67148643  0.51097076    -0.28900
H991        H  0.98571837  0.64126769  0.55752575     0.15300
H992        H  0.95214059  0.69832300  0.49587121     0.15800
C993        C  0.15106878  0.75656069  0.89831975    -0.13800
C994        C  0.16739293  0.76223402  0.86833797    -0.28900
H995        H  0.16985773  0.73236595  0.91584262     0.15300
H996        H  0.14677027  0.78428488  0.85041505     0.15800
C997        C  0.97898632  0.74742749  0.90324100    -0.13800
C998        C  0.95796710  0.75100398  0.87322980    -0.28900
H999        H  0.96489913  0.72200797  0.92102773     0.15300
H1000       H  0.97477607  0.77403998  0.85514154     0.15800
C1001       C  0.07432404  0.70944104  0.94111572    -0.13800
C1002       C  0.04987261  0.70361086  0.96840688    -0.28900
H1003       H  0.10269358  0.68356742  0.93621291     0.15300
H1004       H  0.02135638  0.72930077  0.97333747     0.15800
C1005       C  0.22620456  0.42434222  0.75405189    -0.13800
C1006       C  0.21885778  0.41095716  0.78498120    -0.28900
H1007       H  0.25399399  0.40661129  0.74082578     0.15300
H1008       H  0.19437120  0.43271649  0.79848678     0.15800
C1009       C  0.22335451  0.59361944  0.75502319    -0.13800
C1010       C  0.21867189  0.60314204  0.78630142    -0.28900
H1011       H  0.24832048  0.61468881  0.74057547     0.14500
H1012       H  0.19684828  0.57866052  0.80085550     0.15800
C1013       C  0.31991417  0.58080086  0.65374985    -0.13800
C1014       C  0.32319564  0.60079184  0.62385125    -0.28900
H1015       H  0.29602757  0.59648799  0.67074067     0.15300
H1016       H  0.34453247  0.58242351  0.60651625     0.15800
C1017       C  0.32239884  0.40680837  0.65271319    -0.13800
C1018       C  0.32782425  0.38622641  0.62413233    -0.28900
H1019       H  0.29733040  0.39109846  0.66963720     0.15300
H1020       H  0.35045750  0.40400305  0.60650312     0.15800
C1021       C  0.27703563  0.48897242  0.68906574    -0.13800
C1022       C  0.27157277  0.51406968  0.71597031    -0.28900
H1023       H  0.24933393  0.46255283  0.68196255     0.15300
H1024       H  0.29890608  0.54084677  0.72309083     0.15800
loop_ 
_geom_bond_atom_site_label_1 
_geom_bond_atom_site_label_2 
_geom_bond_distance 
_geom_bond_site_symmetry_2 
_ccdc_geom_bond_type 
N1            C5   1.353       .  A
N1            C2   1.358       .  A
N1          C509   1.443       .  S
C2            C3   1.387       .  A
C2          C505   1.489       .  S
C3            C4   1.374       .  A
C3            H6   1.082       .  S
C4            C5   1.384       .  A
C4            H7   1.082       .  S
C5          C501   1.482       .  S
N8           C12   1.353       .  A
N8            C9   1.359       .  A
N8          C510   1.443       .  S
C9           C10   1.389       .  A
C9          C497   1.497       .  S
C10          C11   1.376       .  A
C10          H13   1.083       .  S
C11          C12   1.383       .  A
C11          H14   1.082       .  S
C12         C493   1.486       .  S
N15          C19   1.358       .  A
N15          C16   1.354       .  A
N15         C489   1.445       .  S
C16          C17   1.382       .  A
C16         C481   1.484       .  S
C17          C18   1.374       .  A
C17          H20   1.082       .  S
C18          C19   1.389       .  A
C18          H21   1.082       .  S
C19         C485   1.490   1_455  S
N22          C26   1.355   1_556  A
N22          C23   1.358       .  A
N22        C1002   1.446       .  S
C23          C24   1.389   1_556  A
C23         C473   1.496   1_556  S
C24          C25   1.374       .  A
C24          H27   1.083       .  S
C25          C26   1.384       .  A
C25          H28   1.083       .  S
C26         C478   1.486   1_455  S
O29         Ni35   1.928       .  S
O29          C50   1.272       .  A
O30         Ni53   1.895       .  S
O30          C39   1.264       .  A
O31         Ni35   1.923       .  S
O31         Ni53   1.908       .  S
O31         Ni47   1.914       .  S
O31          H54   0.965       .  S
C32         C461   1.477       .  S
C32          O49   1.265       .  A
C32          O41   1.271       .  A
O33         Ni52   1.917       .  S
O33          C39   1.270       .  A
O34         Ni52   1.900       .  S
O34          C36   1.268       .  A
Ni35         O38   1.937       .  S
Ni35         O40   1.902       .  S
C36         C457   1.474       .  S
C36          O46   1.279       .  A
O37         Ni53   1.922       .  S
O37          C43   1.268       .  A
O38          C43   1.275       .  A
C39         C465   1.467       .  S
O40          C42   1.267       .  A
O41         Ni52   1.935       .  S
C42         C482   1.476       .  S
C42          O48   1.276       .  A
C43         C498   1.481       .  S
H44          O45   0.966       .  S
O45         Ni53   1.924       .  S
O45         Ni47   1.905       .  S
O45         Ni52   1.923       .  S
O46         Ni47   1.947       .  S
Ni47         O51   1.892       .  S
Ni47         O49   1.915       .  S
O48         Ni53   1.943       .  S
C50         C469   1.470       .  S
C50          O51   1.262       .  A
O55         Ni61   1.926       .  S
O55          C76   1.273       .  A
O56         Ni79   1.899       .  S
O56          C65   1.265       .  A
O57         Ni61   1.922       .  S
O57         Ni79   1.904       .  S
O57         Ni73   1.917       .  S
O57          H80   0.967       .  S
C58         C474   1.478       .  S
C58          O75   1.266       .  A
C58          O67   1.271       .  A
O59         Ni78   1.914       .  S
O59          C65   1.270       .  A
O60         Ni78   1.904       .  S
O60          C62   1.268       .  A
Ni61         O64   1.935       .  S
Ni61         O66   1.906       .  S
C62         C502   1.472       .  S
C62          O72   1.276       .  A
O63         Ni79   1.919       .  S
O63          C69   1.268       .  A
O64          C69   1.273       .  A
C65         C466   1.468       .  S
O66          C68   1.269       .  A
O67         Ni78   1.933       .  S
C68         C454   1.476       .  S
C68          O74   1.278       .  A
C69         C449   1.478       .  S
H70          O71   0.967       .  S
O71         Ni79   1.923       .  S
O71         Ni73   1.904       .  S
O71         Ni78   1.922       .  S
O72         Ni73   1.941       .  S
Ni73         O77   1.888       .  S
Ni73         O75   1.920       .  S
O74         Ni79   1.945       .  S
C76         C982   1.467   1_554  S
C76          O77   1.261       .  A
N81          C85   1.354       .  A
N81          C82   1.358       .  A
N81         C445   1.444       .  S
C82          C83   1.389       .  A
C82         C450   1.496       .  S
C83          C84   1.375       .  A
C83          H86   1.083       .  S
C84          C85   1.383       .  A
C84          H87   1.082       .  S
C85         C441   1.485       .  S
N88          C92   1.359       .  A
N88          C89   1.356       .  A
N88         C446   1.445       .  S
C89          C90   1.383       .  A
C89         C458   1.484       .  S
C90          C91   1.372       .  A
C90          H93   1.082       .  S
C91          C92   1.387       .  A
C91          H94   1.082       .  S
C92         C438   1.493       .  S
O95        Ni101   1.927       .  S
O95         C116   1.273       .  A
O96        Ni119   1.887       .  S
O96         C105   1.260       .  A
O97        Ni101   1.928       .  S
O97        Ni119   1.903       .  S
O97        Ni113   1.913       .  S
O97         H120   0.967       .  S
C98         C421   1.477       .  S
C98         O115   1.267       .  A
C98         O107   1.274       .  A
O99        Ni118   1.927       .  S
O99         C105   1.273       .  A
O100       Ni118   1.906       .  S
O100        C102   1.267       .  A
Ni101       O104   1.938       .  S
Ni101       O106   1.909       .  S
C102        C486   1.475       .  S
C102        O112   1.276       .  A
O103       Ni119   1.903       .  S
O103        C109   1.265       .  A
O104        C109   1.275       .  A
C105        C433   1.467       .  S
O106        C108   1.267       .  A
O107       Ni118   1.938       .  S
C108        C437   1.476       .  S
C108        O114   1.275       .  A
C109        C425   1.475       .  S
H110        O111   0.966       .  S
O111       Ni119   1.912       .  S
O111       Ni113   1.903       .  S
O111       Ni118   1.925       .  S
O112       Ni113   1.942       .  S
Ni113       O117   1.889       .  S
Ni113       O115   1.911       .  S
O114       Ni119   1.936       .  S
C116        C430   1.467       .  S
C116        O117   1.261       .  A
O121       Ni127   1.928       .  S
O121        C142   1.272       .  A
O122       Ni145   1.895       .  S
O122        C131   1.263       .  A
O123       Ni127   1.929       .  S
O123       Ni145   1.907       .  S
O123       Ni139   1.916       .  S
O123        H146   0.966       .  S
C124        C442   1.476       .  S
C124        O141   1.267       .  A
C124        O133   1.275       .  A
O125       Ni144   1.930       .  S
O125        C131   1.274       .  A
O126       Ni144   1.912       .  S
O126        C128   1.268       .  A
Ni127       O130   1.935       .  S
Ni127       O132   1.905       .  S
C128        C417   1.474       .  S
C128        O138   1.273       .  A
O129       Ni145   1.907       .  S
O129        C135   1.266       .  A
O130        C135   1.273       .  A
C131        C946   1.472   1_554  S
O132        C134   1.268       .  A
O133       Ni144   1.938       .  S
C134        C413   1.477       .  S
C134        O140   1.279       .  A
C135        C477   1.475       .  S
H136        O137   0.966       .  S
O137       Ni145   1.911       .  S
O137       Ni139   1.903       .  S
O137       Ni144   1.928       .  S
O138       Ni139   1.930       .  S
Ni139       O143   1.886       .  S
Ni139       O141   1.909       .  S
O140       Ni145   1.944       .  S
C142        C429   1.466       .  S
C142        O143   1.260       .  A
N147        C151   1.355       .  A
N147        C148   1.358       .  A
N147        C409   1.445       .  S
C148        C149   1.387       .  A
C148        C414   1.490       .  S
C149        C150   1.373       .  A
C149        H152   1.082       .  S
C150        C151   1.384       .  A
C150        H153   1.082       .  S
C151        C405   1.483       .  S
N154        C158   1.360       .  A
N154        C155   1.356       .  A
N154        C410   1.444       .  S
C155        C156   1.384       .  A
C155        C422   1.490       .  S
C156        C157   1.375       .  A
C156        H159   1.082   1_655  S
C157        C158   1.388       .  A
C157        H160   1.083       .  S
C158        C402   1.496       .  S
N161        C165   1.357   1_565  A
N161        C162   1.354       .  A
N161        C397   1.444       .  S
C162        C163   1.383       .  A
C162        C426   1.484       .  S
C163        C164   1.375   1_565  A
C163        H166   1.083       .  S
C164        C165   1.389       .  A
C164        H167   1.083       .  S
C165        C394   1.494       .  S
N168        C172   1.358       .  A
N168        C169   1.358   1_545  A
N168        C910   1.446   1_554  S
C169        C170   1.388       .  A
C169        C418   1.492       .  S
C170        C171   1.373   1_565  A
C170        H173   1.082       .  S
C171        C172   1.384       .  A
C171        H174   1.082       .  S
C172        C389   1.490       .  S
O175       Ni181   1.930       .  S
O175        C196   1.273       .  A
O176       Ni199   1.904       .  S
O176        C185   1.267       .  A
O177       Ni181   1.921       .  S
O177       Ni199   1.907       .  S
O177       Ni193   1.918       .  S
O177        H200   0.967       .  S
C178        C393   1.477       .  S
C178        O195   1.267       .  A
C178        O187   1.271       .  A
O179       Ni198   1.916       .  S
O179        C185   1.270       .  A
O180       Ni198   1.903       .  S
O180        C182   1.269       .  A
Ni181       O184   1.938       .  S
Ni181       O186   1.905       .  S
C182        C373   1.468       .  S
C182        O192   1.275       .  A
O183       Ni199   1.921       .  S
O183        C189   1.268       .  A
O184        C189   1.274       .  A
C185        C382   1.472       .  S
O186        C188   1.269       .  A
O187       Ni198   1.931       .  S
C188        C377   1.474       .  S
C188        O194   1.279       .  A
C189        C401   1.482       .  S
H190        O191   0.966       .  S
O191       Ni199   1.925       .  S
O191       Ni193   1.907       .  S
O191       Ni198   1.922       .  S
O192       Ni193   1.938       .  S
Ni193       O197   1.892       .  S
Ni193       O195   1.921       .  S
O194       Ni199   1.944       .  S
C196        C385   1.470       .  S
C196        O197   1.263       .  A
O201       Ni207   1.925       .  S
O201        C222   1.271       .  A
O202       Ni225   1.899       .  S
O202        C211   1.266       .  A
O203       Ni207   1.923       .  S
O203       Ni225   1.909       .  S
O203       Ni219   1.910       .  S
O203        H226   0.966       .  S
C204        C370   1.479       .  S
C204        O221   1.266       .  A
C204        O213   1.272       .  A
O205       Ni224   1.919       .  S
O205        C211   1.271       .  A
O206       Ni224   1.899       .  S
O206        C208   1.267       .  A
Ni207       O210   1.927       .  S
Ni207       O212   1.907       .  S
C208        C406   1.474       .  S
C208        O218   1.279       .  A
O209       Ni225   1.926       .  S
O209        C215   1.271       .  A
O210        C215   1.274       .  A
C211        C381   1.471       .  S
O212        C214   1.267       .  A
O213       Ni224   1.936       .  S
C214        C390   1.479       .  S
C214        O220   1.275       .  A
C215        C365   1.480       .  S
H216        O217   0.966       .  S
O217       Ni225   1.926       .  S
O217       Ni219   1.907       .  S
O217       Ni224   1.923       .  S
O218       Ni219   1.949       .  S
Ni219       O223   1.894       .  S
Ni219       O221   1.918       .  S
O220       Ni225   1.938       .  S
C222        C898   1.469   1_554  S
C222        O223   1.262       .  A
N227        C231   1.359       .  A
N227        C228   1.352       .  A
N227        C362   1.442       .  S
C228        C229   1.383       .  A
C228        C357   1.486       .  S
C229        C230   1.376       .  A
C229        H232   1.082       .  S
C230        C231   1.389       .  A
C230        H233   1.083       .  S
C231        C366   1.494       .  S
N234        C238   1.359       .  A
N234        C235   1.351       .  A
N234        C361   1.442       .  S
C235        C236   1.383       .  A
C235        C374   1.478       .  S
C236        C237   1.374       .  A
C236        H239   1.082       .  S
C237        C238   1.387       .  A
C237        H240   1.082       .  S
C238        C353   1.492       .  S
N241        C245   1.358   1_565  A
N241        C242   1.355       .  A
N241        C349   1.444       .  S
C242        C243   1.385       .  A
C242        C462   1.490       .  S
C243        C244   1.375   1_565  A
C243        H246   1.082       .  S
C244        C245   1.388       .  A
C244        H247   1.083       .  S
C245        C345   1.495       .  S
N248        C252   1.358   1_546  A
N248        C249   1.355   1_556  A
N248        C862   1.444       .  S
C249        C250   1.384       .  A
C249        C341   1.484       .  S
C250        C251   1.373   1_545  A
C250        H253   1.082       .  S
C251        C252   1.387       .  A
C251        H254   1.082       .  S
C252        C453   1.491       .  S
N255        C259   1.357       .  A
N255        C256   1.358       .  A
N255        C337   1.445       .  S
C256        C257   1.387       .  A
C256        C378   1.488   1_455  S
C257        C258   1.372       .  A
C257        H260   1.083       .  S
C258        C259   1.384       .  A
C258        H261   1.082       .  S
C259        C333   1.487       .  S
N262        C266   1.359   1_556  A
N262        C263   1.359   1_556  A
N262        C850   1.447       .  S
C263        C264   1.386       .  A
C263        C329   1.493       .  S
C264        C265   1.374       .  A
C264        H267   1.083       .  S
C265        C266   1.387       .  A
C265        H268   1.082   1_455  S
C266        C369   1.496   1_455  S
O269       Ni275   1.929       .  S
O269        C290   1.273       .  A
O270       Ni293   1.905       .  S
O270        C279   1.266       .  A
O271       Ni275   1.925       .  S
O271       Ni293   1.908       .  S
O271       Ni287   1.914       .  S
O271        H294   0.967       .  S
C272        C494   1.477       .  S
C272        O289   1.266       .  A
C272        O281   1.271       .  A
O273       Ni292   1.915       .  S
O273        C279   1.270       .  A
O274       Ni292   1.903       .  S
O274        C276   1.267       .  A
Ni275       O278   1.935       .  S
Ni275       O280   1.905       .  S
C276        C334   1.476       .  S
C276        O286   1.276       .  A
O277       Ni293   1.921       .  S
O277        C283   1.269       .  A
O278        C283   1.274       .  A
C279        C325   1.473       .  S
O280        C282   1.268       .  A
O281       Ni292   1.931       .  S
C282        C354   1.481       .  S
C282        O288   1.280       .  A
C283        C346   1.480       .  S
H284        O285   0.966       .  S
O285       Ni293   1.924       .  S
O285       Ni287   1.908       .  S
O285       Ni292   1.927       .  S
O286       Ni287   1.941       .  S
Ni287       O291   1.889       .  S
Ni287       O289   1.914       .  S
O288       Ni293   1.951       .  S
C290        C322   1.469       .  S
C290        O291   1.261       .  A
O295       Ni301   1.932       .  S
O295        C316   1.274       .  A
O296       Ni319   1.903       .  S
O296        C305   1.267       .  A
O297       Ni301   1.923       .  S
O297       Ni319   1.905       .  S
O297       Ni313   1.910       .  S
O297        H320   0.967       .  S
C298        C358   1.476       .  S
C298        O315   1.265       .  A
C298        O307   1.270       .  A
O299       Ni318   1.912       .  S
O299        C305   1.269       .  A
O300       Ni318   1.902       .  S
O300        C302   1.268       .  A
Ni301       O304   1.938       .  S
Ni301       O306   1.906       .  S
C302        C342   1.474       .  S
C302        O312   1.278       .  A
O303       Ni319   1.918       .  S
O303        C309   1.269       .  A
O304        C309   1.276       .  A
C305        C838   1.471   1_554  S
O306        C308   1.267       .  A
O307       Ni318   1.931       .  S
C308        C506   1.478       .  S
C308        O314   1.278       .  A
C309        C330   1.480       .  S
H310        O311   0.966       .  S
O311       Ni319   1.928       .  S
O311       Ni313   1.906       .  S
O311       Ni318   1.926       .  S
O312       Ni313   1.945       .  S
Ni313       O317   1.889       .  S
Ni313       O315   1.913       .  S
O314       Ni319   1.945       .  S
C316        C321   1.469       .  S
C316        O317   1.261       .  A
C321        C322   1.340       .  D
C321        H323   1.087       .  S
C322        H324   1.087       .  S
C325        C326   1.348       .  D
C325        H327   1.087       .  S
C326        C817   1.470       .  S
C326        H328   1.087       .  S
C329        C330   1.354       .  D
C329        H331   1.085   1_554  S
C330        H332   1.087       .  S
C333        C334   1.351       .  D
C333        H335   1.086       .  S
C334        H336   1.086       .  S
C337        C338   1.353       .  D
C337        H339   1.085       .  S
C338        N774   1.446       .  S
C338        H340   1.085       .  S
C341        C342   1.350       .  D
C341        H343   1.086       .  S
C342        H344   1.087       .  S
C345        C346   1.354       .  D
C345        H347   1.086       .  S
C346        H348   1.087       .  S
C349        C350   1.351   1_565  D
C349        H351   1.086       .  S
C350        N760   1.446       .  S
C350        H352   1.086       .  S
C353        C354   1.357       .  D
C353        H355   1.086       .  S
C354        H356   1.086       .  S
C357        C358   1.348       .  D
C357        H359   1.086       .  S
C358        H360   1.087       .  S
C361        C362   1.345       .  D
C361        H363   1.086       .  S
C362        H364   1.086       .  S
C365        C366   1.354       .  D
C365        H367   1.088       .  S
C366        H368   1.085       .  S
C369        C370   1.354       .  D
C369        H371   1.086       .  S
C370        H372   1.086       .  S
C373        C374   1.345       .  D
C373        H375   1.087       .  S
C374        H376   1.086       .  S
C377        C378   1.353       .  D
C377        H379   1.087       .  S
C378        H380   1.085       .  S
C381        C382   1.347       .  D
C381        H383   1.087       .  S
C382        H384   1.087       .  S
C385        C386   1.343       .  D
C385        H387   1.087       .  S
C386        C734   1.471       .  S
C386        H388   1.087       .  S
C389        C390   1.354       .  D
C389        H391   1.085       .  S
C390        H392   1.086       .  S
C393        C394   1.352       .  D
C393        H395   1.087       .  S
C394        H396   1.086       .  S
C397        C398   1.350   1_565  D
C397        H399   1.086       .  S
C398        N680   1.443       .  S
C398        H400   1.086       .  S
C401        C402   1.355       .  D
C401        H403   1.087       .  S
C402        H404   1.085       .  S
C405        C406   1.351       .  D
C405        H407   1.086       .  S
C406        H408   1.086       .  S
C409        C410   1.350       .  D
C409        H411   1.086       .  S
C410        H412   1.086       .  S
C413        C414   1.355       .  D
C413        H415   1.087       .  S
C414        H416   1.086       .  S
C417        C418   1.351       .  D
C417        H419   1.086       .  S
C418        H420   1.085   1_554  S
C421        C422   1.351       .  D
C421        H423   1.087       .  S
C422        H424   1.086       .  S
C425        C426   1.351       .  D
C425        H427   1.087       .  S
C426        H428   1.086       .  S
C429        C430   1.339       .  D
C429        H431   1.087       .  S
C430        H432   1.087       .  S
C433        C434   1.339       .  D
C433        H435   1.087       .  S
C434        C643   1.466       .  S
C434        H436   1.087       .  S
C437        C438   1.354       .  D
C437        H439   1.086       .  S
C438        H440   1.086       .  S
C441        C442   1.350       .  D
C441        H443   1.086       .  S
C442        H444   1.088       .  S
C445        C446   1.350       .  D
C445        H447   1.086       .  S
C446        H448   1.086       .  S
C449        C450   1.354       .  D
C449        H451   1.086       .  S
C450        H452   1.086       .  S
C453        C454   1.354       .  D
C453        H455   1.085   1_554  S
C454        H456   1.086       .  S
C457        C458   1.351       .  D
C457        H459   1.086       .  S
C458        H460   1.086       .  S
C461        C462   1.351       .  D
C461        H463   1.087       .  S
C462        H464   1.086       .  S
C465        C466   1.345       .  D
C465        H467   1.087       .  S
C466        H468   1.087       .  S
C469        C470   1.343       .  D
C469        H471   1.087       .  S
C470        C588   1.471       .  S
C470        H472   1.087       .  S
C473        C474   1.354       .  D
C473        H475   1.086   1_554  S
C474        H476   1.087       .  S
C477        C478   1.351       .  D
C477        H479   1.087       .  S
C478        H480   1.086   1_554  S
C481        C482   1.350       .  D
C481        H483   1.086       .  S
C482        H484   1.087       .  S
C485        C486   1.353       .  D
C485        H487   1.085       .  S
C486        H488   1.086       .  S
C489        C490   1.350       .  D
C489        H491   1.086       .  S
C490        N534   1.444       .  S
C490        H492   1.086       .  S
C493        C494   1.349       .  D
C493        H495   1.086       .  S
C494        H496   1.088       .  S
C497        C498   1.356       .  D
C497        H499   1.086       .  S
C498        H500   1.087       .  S
C501        C502   1.347       .  D
C501        H503   1.086       .  S
C502        H504   1.087       .  S
C505        C506   1.354       .  D
C505        H507   1.086       .  S
C506        H508   1.087       .  S
C509        C510   1.347       .  D
C509        H511   1.086       .  S
C510        H512   1.086       .  S
N513        C517   1.358       .  A
N513        C514   1.354       .  A
N513       C1021   1.443       .  S
C514        C515   1.383       .  A
C514       C1017   1.482       .  S
C515        C516   1.372       .  A
C515        H518   1.082       .  S
C516        C517   1.387       .  A
C516        H519   1.082       .  S
C517       C1013   1.488       .  S
N520        C524   1.358       .  A
N520        C521   1.353       .  A
N520       C1022   1.442       .  S
C521        C522   1.384       .  A
C521       C1009   1.485       .  S
C522        C523   1.375       .  A
C522        H525   1.083       .  S
C523        C524   1.388       .  A
C523        H526   1.083       .  S
C524       C1005   1.494       .  S
N527        C531   1.358       .  A
N527        C528   1.355       .  A
N527       C1001   1.446       .  S
C528        C529   1.383       .  A
C528        C993   1.481       .  S
C529        C530   1.372       .  A
C529        H532   1.082       .  S
C530        C531   1.387       .  A
C530        H533   1.082       .  S
C531        C997   1.488   1_455  S
N534        C538   1.353       .  A
N534        C535   1.357       .  A
C535        C536   1.387       .  A
C535        C985   1.492       .  S
C536        C537   1.375       .  A
C536        H539   1.083       .  S
C537        C538   1.384       .  A
C537        H540   1.082       .  S
C538        C990   1.485   1_455  S
O541       Ni547   1.924       .  S
O541        C562   1.271       .  A
O542       Ni565   1.895       .  S
O542        C551   1.263       .  A
O543       Ni547   1.924       .  S
O543       Ni565   1.909       .  S
O543       Ni559   1.916       .  S
O543        H566   0.966       .  S
C544        C973   1.477       .  S
C544        O561   1.267       .  A
C544        O553   1.273       .  A
O545       Ni564   1.921       .  S
O545        C551   1.271       .  A
O546       Ni564   1.899       .  S
O546        C548   1.266       .  A
Ni547       O550   1.932       .  S
Ni547       O552   1.896       .  S
C548        C969   1.473       .  S
C548        O558   1.275       .  A
O549       Ni565   1.910       .  S
O549        C555   1.267       .  A
O550        C555   1.272       .  A
C551        C977   1.468       .  S
O552        C554   1.266       .  A
O553       Ni564   1.935       .  S
C554        C994   1.472       .  S
C554        O560   1.277       .  A
C555       C1010   1.474       .  S
H556        O557   0.967       .  S
O557       Ni565   1.915       .  S
O557       Ni559   1.906       .  S
O557       Ni564   1.925       .  S
O558       Ni559   1.939       .  S
Ni559       O563   1.888       .  S
Ni559       O561   1.912       .  S
O560       Ni565   1.942       .  S
C562        C981   1.466       .  S
C562        O563   1.260       .  A
O567       Ni573   1.925       .  S
O567        C588   1.272       .  A
O568       Ni591   1.896       .  S
O568        C577   1.264       .  A
O569       Ni573   1.926       .  S
O569       Ni591   1.907       .  S
O569       Ni585   1.919       .  S
O569        H592   0.966       .  S
C570        C986   1.478       .  S
C570        O587   1.267       .  A
C570        O579   1.272       .  A
O571       Ni590   1.920       .  S
O571        C577   1.271       .  A
O572       Ni590   1.906       .  S
O572        C574   1.268       .  A
Ni573       O576   1.936       .  S
Ni573       O578   1.911       .  S
C574       C1014   1.474       .  S
C574        O584   1.277       .  A
O575       Ni591   1.918       .  S
O575        C581   1.268       .  A
O576        C581   1.274       .  A
C577        C978   1.469       .  S
O578        C580   1.269       .  A
O579       Ni590   1.934       .  S
C580        C966   1.476       .  S
C580        O586   1.276       .  A
C581        C961   1.480       .  S
H582        O583   0.966       .  S
O583       Ni591   1.920       .  S
O583       Ni585   1.905       .  S
O583       Ni590   1.925       .  S
O584       Ni585   1.942       .  S
Ni585       O589   1.894       .  S
Ni585       O587   1.917       .  S
O586       Ni591   1.939       .  S
C588        O589   1.263       .  A
N593        C597   1.353       .  A
N593        C594   1.358       .  A
N593        C957   1.444       .  S
C594        C595   1.387       .  A
C594        C962   1.492       .  S
C595        C596   1.375       .  A
C595        H598   1.083       .  S
C596        C597   1.385       .  A
C596        H599   1.083       .  S
C597        C953   1.485       .  S
N600        C604   1.359       .  A
N600        C601   1.354       .  A
N600        C958   1.445       .  S
C601        C602   1.381       .  A
C601        C970   1.481       .  S
C602        C603   1.373       .  A
C602        H605   1.082       .  S
C603        C604   1.389       .  A
C603        H606   1.082       .  S
C604        C950   1.491       .  S
O607       Ni613   1.919       .  S
O607        C628   1.271       .  A
O608       Ni631   1.892       .  S
O608        C617   1.262       .  A
O609       Ni613   1.927       .  S
O609       Ni631   1.905       .  S
O609       Ni625   1.926       .  S
O609        H632   0.966       .  S
C610        C933   1.480       .  S
C610        O627   1.270       .  A
C610        O619   1.275       .  A
O611       Ni630   1.931       .  S
O611        C617   1.273       .  A
O612       Ni630   1.905       .  S
O612        C614   1.267       .  A
Ni613       O616   1.935       .  S
Ni613       O618   1.904       .  S
C614        C998   1.474       .  S
C614        O624   1.276       .  A
O615       Ni631   1.917       .  S
O615        C621   1.265       .  A
O616        C621   1.272       .  A
C617        C945   1.471       .  S
O618        C620   1.268       .  A
O619       Ni630   1.935       .  S
C620        C949   1.476       .  S
C620        O626   1.280       .  A
C621        C937   1.480       .  S
H622        O623   0.966       .  S
O623       Ni631   1.911       .  S
O623       Ni625   1.906       .  S
O623       Ni630   1.924       .  S
O624       Ni625   1.940       .  S
Ni625       O629   1.896       .  S
Ni625       O627   1.923       .  S
O626       Ni631   1.947       .  S
C628        C942   1.468       .  S
C628        O629   1.265       .  A
O633       Ni639   1.918       .  S
O633        C654   1.271       .  A
O634       Ni657   1.884       .  S
O634        C643   1.259       .  A
O635       Ni639   1.925       .  S
O635       Ni657   1.904       .  S
O635       Ni651   1.917       .  S
O635        H658   0.966       .  S
C636        C954   1.474       .  S
C636        O653   1.267       .  A
C636        O645   1.274       .  A
O637       Ni656   1.930       .  S
O637        C643   1.273       .  A
O638       Ni656   1.905       .  S
O638        C640   1.268       .  A
Ni639       O642   1.936       .  S
Ni639       O644   1.905       .  S
C640        C929   1.474       .  S
C640        O650   1.277       .  A
O641       Ni657   1.905       .  S
O641        C647   1.264       .  A
O642        C647   1.273       .  A
O644        C646   1.267       .  A
O645       Ni656   1.937       .  S
C646        C925   1.475       .  S
C646        O652   1.275       .  A
C647        C989   1.474       .  S
H648        O649   0.967       .  S
O649       Ni657   1.910       .  S
O649       Ni651   1.906       .  S
O649       Ni656   1.925       .  S
O650       Ni651   1.940       .  S
Ni651       O655   1.896       .  S
Ni651       O653   1.908       .  S
O652       Ni657   1.939       .  S
C654        C941   1.469       .  S
C654        O655   1.264       .  A
N659        C663   1.359       .  A
N659        C660   1.355       .  A
N659        C921   1.443       .  S
C660        C661   1.383       .  A
C660        C926   1.485       .  S
C661        C662   1.374       .  A
C661        H664   1.082       .  S
C662        C663   1.388       .  A
C662        H665   1.082       .  S
C663        C917   1.493       .  S
N666        C670   1.354       .  A
N666        C667   1.359       .  A
N666        C922   1.443       .  S
C667        C668   1.388       .  A
C667        C934   1.496       .  S
C668        C669   1.375       .  A
C668        H671   1.083       .  S
C669        C670   1.384       .  A
C669        H672   1.082       .  S
C670        C914   1.488       .  S
N673        C677   1.357   1_565  A
N673        C674   1.357       .  A
N673        C909   1.444       .  S
C674        C675   1.386       .  A
C674        C938   1.494       .  S
C675        C676   1.375   1_565  A
C675        H678   1.082       .  S
C676        C677   1.387       .  A
C676        H679   1.083       .  S
C677        C906   1.493       .  S
N680        C684   1.354       .  A
N680        C681   1.357   1_545  A
C681        C682   1.387       .  A
C681        C930   1.487       .  S
C682        C683   1.373   1_565  A
C682        H685   1.082       .  S
C683        C684   1.383       .  A
C683        H686   1.082       .  S
C684        C901   1.484       .  S
O687       Ni693   1.920       .  S
O687        C708   1.271       .  A
O688       Ni711   1.891       .  S
O688        C697   1.261       .  A
O689       Ni693   1.928       .  S
O689       Ni711   1.906       .  S
O689       Ni705   1.924       .  S
O689        H712   0.965       .  S
C690        C905   1.478       .  S
C690        O707   1.269       .  A
C690        O699   1.274       .  A
O691       Ni710   1.925       .  S
O691        C697   1.272       .  A
O692       Ni710   1.907       .  S
O692        C694   1.267       .  A
Ni693       O696   1.932       .  S
Ni693       O698   1.905       .  S
C694        C885   1.477       .  S
C694        O704   1.277       .  A
O695       Ni711   1.914       .  S
O695        C701   1.266       .  A
O696        C701   1.271       .  A
C697        C894   1.468       .  S
O698        C700   1.268       .  A
O699       Ni710   1.935       .  S
C700        C889   1.475       .  S
C700        O706   1.277       .  A
C701        C913   1.477       .  S
H702        O703   0.966       .  S
O703       Ni711   1.913       .  S
O703       Ni705   1.904       .  S
O703       Ni710   1.924       .  S
O704       Ni705   1.945       .  S
Ni705       O709   1.895       .  S
Ni705       O707   1.919       .  S
O706       Ni711   1.941       .  S
C708        C897   1.469       .  S
C708        O709   1.264       .  A
O713       Ni719   1.924       .  S
O713        C734   1.271       .  A
O714       Ni737   1.889       .  S
O714        C723   1.261       .  A
O715       Ni719   1.929       .  S
O715       Ni737   1.911       .  S
O715       Ni731   1.920       .  S
O715        H738   0.966       .  S
C716        C882   1.478       .  S
C716        O733   1.267       .  A
C716        O725   1.276       .  A
O717       Ni736   1.931       .  S
O717        C723   1.274       .  A
O718       Ni736   1.912       .  S
O718        C720   1.268       .  A
Ni719       O722   1.935       .  S
Ni719       O724   1.901       .  S
C720        C918   1.479       .  S
C720        O730   1.276       .  A
O721       Ni737   1.913       .  S
O721        C727   1.267       .  A
O722        C727   1.273       .  A
C723        C893   1.467       .  S
O724        C726   1.266       .  A
O725       Ni736   1.940       .  S
C726        C902   1.474       .  S
C726        O732   1.275       .  A
C727        C877   1.478       .  S
H728        O729   0.967       .  S
O729       Ni737   1.909       .  S
O729       Ni731   1.901       .  S
O729       Ni736   1.925       .  S
O730       Ni731   1.941       .  S
Ni731       O735   1.894       .  S
Ni731       O733   1.909       .  S
O732       Ni737   1.938       .  S
C734        O735   1.262       .  A
N739        C743   1.355       .  A
N739        C740   1.359       .  A
N739        C874   1.444       .  S
C740        C741   1.390       .  A
C740        C869   1.497       .  S
C741        C742   1.375       .  A
C741        H744   1.083       .  S
C742        C743   1.383       .  A
C742        H745   1.083       .  S
C743        C878   1.487       .  S
N746        C750   1.356       .  A
N746        C747   1.358       .  A
N746        C873   1.445       .  S
C747        C748   1.386       .  A
C747        C886   1.487       .  S
C748        C749   1.374       .  A
C748        H751   1.082       .  S
C749        C750   1.384       .  A
C749        H752   1.082       .  S
C750        C865   1.484       .  S
N753        C757   1.360       .  A
N753        C754   1.356   1_545  A
N753        C861   1.445   1_545  S
C754        C755   1.383       .  A
C754        C974   1.490       .  S
C755        C756   1.374   1_565  A
C755        H758   1.082       .  S
C756        C757   1.390       .  A
C756        H759   1.082       .  S
C757        C857   1.500       .  S
N760        C764   1.358   1_545  A
N760        C761   1.357       .  A
C761        C762   1.383       .  A
C761        C853   1.485       .  S
C762        C763   1.373   1_545  A
C762        H765   1.082       .  S
C763        C764   1.388       .  A
C763        H766   1.082       .  S
C764        C965   1.491       .  S
N767        C771   1.359       .  A
N767        C768   1.359       .  A
N767        C849   1.449       .  S
C768        C769   1.388       .  A
C768        C890   1.492   1_455  S
C769        C770   1.371       .  A
C769        H772   1.082       .  S
C770        C771   1.383       .  A
C770        H773   1.082       .  S
C771        C845   1.487       .  S
N774        C778   1.357       .  A
N774        C775   1.358       .  A
C775        C776   1.388       .  A
C775        C841   1.495       .  S
C776        C777   1.374       .  A
C776        H779   1.083       .  S
C777        C778   1.384       .  A
C777        H780   1.083       .  S
C778        C881   1.490   1_455  S
O781       Ni787   1.917       .  S
O781        C802   1.269       .  A
O782       Ni805   1.900       .  S
O782        C791   1.265       .  A
O783       Ni787   1.925       .  S
O783       Ni805   1.910       .  S
O783       Ni799   1.925       .  S
O783        H806   0.966       .  S
C784       C1006   1.478       .  S
C784        O801   1.269       .  A
C784        O793   1.272       .  A
O785       Ni804   1.919       .  S
O785        C791   1.270       .  A
O786       Ni804   1.898       .  S
O786        C788   1.266       .  A
Ni787       O790   1.930       .  S
Ni787       O792   1.896       .  S
C788        C846   1.478       .  S
C788        O798   1.279       .  A
O789       Ni805   1.922       .  S
O789        C795   1.266       .  A
O790        C795   1.270       .  A
C791        C837   1.469       .  S
O792        C794   1.267       .  A
O793       Ni804   1.929       .  S
C794        C866   1.476       .  S
C794        O800   1.281       .  A
C795        C858   1.475       .  S
H796        O797   0.966       .  S
O797       Ni805   1.915       .  S
O797       Ni799   1.908       .  S
O797       Ni804   1.923       .  S
O798       Ni799   1.951       .  S
Ni799       O803   1.903       .  S
Ni799       O801   1.923       .  S
O800       Ni805   1.953       .  S
C802        C834   1.471       .  S
C802        O803   1.267       .  A
O807       Ni813   1.914       .  S
O807        C828   1.269       .  A
O808       Ni831   1.901       .  S
O808        C817   1.267       .  A
O809       Ni813   1.921       .  S
O809       Ni831   1.909       .  S
O809       Ni825   1.918       .  S
O809        H832   0.966       .  S
C810        C870   1.479       .  S
C810        O827   1.265       .  A
C810        O819   1.270       .  A
O811       Ni830   1.918       .  S
O811        C817   1.270       .  A
O812       Ni830   1.895       .  S
O812        C814   1.268       .  A
Ni813       O816   1.923       .  S
Ni813       O818   1.901       .  S
C814        C854   1.477       .  S
C814        O824   1.283       .  A
O815       Ni831   1.928       .  S
O815        C821   1.270       .  A
O816        C821   1.270       .  A
O818        C820   1.268       .  A
O819       Ni830   1.931       .  S
C820       C1018   1.471       .  S
C820        O826   1.276       .  A
C821        C842   1.477       .  S
H822        O823   0.967       .  S
O823       Ni831   1.928       .  S
O823       Ni825   1.910       .  S
O823       Ni830   1.922       .  S
O824       Ni825   1.958       .  S
Ni825       O829   1.906       .  S
Ni825       O827   1.922       .  S
O826       Ni831   1.939       .  S
C828        C833   1.474       .  S
C828        O829   1.267       .  A
C833        C834   1.349       .  D
C833        H835   1.087       .  S
C834        H836   1.087       .  S
C837        C838   1.347       .  D
C837        H839   1.087       .  S
C838        H840   1.087       .  S
C841        C842   1.350       .  D
C841        H843   1.085       .  S
C842        H844   1.087       .  S
C845        C846   1.355       .  D
C845        H847   1.085       .  S
C846        H848   1.086       .  S
C849        C850   1.356       .  D
C849        H851   1.086       .  S
C850        H852   1.085       .  S
C853        C854   1.354       .  D
C853        H855   1.086       .  S
C854        H856   1.086       .  S
C857        C858   1.353       .  D
C857        H859   1.086       .  S
C858        H860   1.084       .  S
C861        C862   1.350   1_565  D
C861        H863   1.086       .  S
C862        H864   1.086       .  S
C865        C866   1.352       .  D
C865        H867   1.086       .  S
C866        H868   1.086       .  S
C869        C870   1.354       .  D
C869        H871   1.086       .  S
C870        H872   1.086       .  S
C873        C874   1.350       .  D
C873        H875   1.086       .  S
C874        H876   1.086       .  S
C877        C878   1.350       .  D
C877        H879   1.087       .  S
C878        H880   1.086       .  S
C881        C882   1.354       .  D
C881        H883   1.086       .  S
C882        H884   1.087       .  S
C885        C886   1.353       .  D
C885        H887   1.087       .  S
C886        H888   1.085       .  S
C889        C890   1.353       .  D
C889        H891   1.086       .  S
C890        H892   1.085       .  S
C893        C894   1.340       .  D
C893        H895   1.087       .  S
C894        H896   1.087       .  S
C897        C898   1.344       .  D
C897        H899   1.087       .  S
C898        H900   1.087       .  S
C901        C902   1.350       .  D
C901        H903   1.086       .  S
C902        H904   1.086       .  S
C905        C906   1.352       .  D
C905        H907   1.087       .  S
C906        H908   1.086       .  S
C909        C910   1.354   1_565  D
C909        H911   1.085       .  S
C910        H912   1.086       .  S
C913        C914   1.350       .  D
C913        H915   1.087       .  S
C914        H916   1.086       .  S
C917        C918   1.355       .  D
C917        H919   1.085       .  S
C918        H920   1.086       .  S
C921        C922   1.348       .  D
C921        H923   1.086       .  S
C922        H924   1.086       .  S
C925        C926   1.349       .  D
C925        H927   1.087       .  S
C926        H928   1.086       .  S
C929        C930   1.352       .  D
C929        H931   1.087       .  S
C930        H932   1.085       .  S
C933        C934   1.354       .  D
C933        H935   1.087       .  S
C934        H936   1.086       .  S
C937        C938   1.353       .  D
C937        H939   1.087       .  S
C938        H940   1.086       .  S
C941        C942   1.344       .  D
C941        H943   1.087       .  S
C942        H944   1.087       .  S
C945        C946   1.343       .  D
C945        H947   1.087       .  S
C946        H948   1.087       .  S
C949        C950   1.355       .  D
C949        H951   1.085       .  S
C950        H952   1.086       .  S
C953        C954   1.350       .  D
C953        H955   1.086       .  S
C954        H956   1.087       .  S
C957        C958   1.349       .  D
C957        H959   1.086       .  S
C958        H960   1.086       .  S
C961        C962   1.353       .  D
C961        H963   1.088       .  S
C962        H964   1.085       .  S
C965        C966   1.352       .  D
C965        H967   1.085       .  S
C966        H968   1.087       .  S
C969        C970   1.349       .  D
C969        H971   1.087       .  S
C970        H972   1.086       .  S
C973        C974   1.351       .  D
C973        H975   1.087       .  S
C974        H976   1.086       .  S
C977        C978   1.344       .  D
C977        H979   1.087       .  S
C978        H980   1.087       .  S
C981        C982   1.340       .  D
C981        H983   1.087       .  S
C982        H984   1.087       .  S
C985        C986   1.353       .  D
C985        H987   1.086       .  S
C986        H988   1.087       .  S
C989        C990   1.350       .  D
C989        H991   1.087       .  S
C990        H992   1.086       .  S
C993        C994   1.350       .  D
C993        H995   1.086       .  S
C994        H996   1.087       .  S
C997        C998   1.354       .  D
C997        H999   1.085       .  S
C998       H1000   1.087       .  S
C1001      C1002   1.351       .  D
C1001      H1003   1.086       .  S
C1002      H1004   1.086       .  S
C1005      C1006   1.353       .  D
C1005      H1007   1.086       .  S
C1006      H1008   1.087       .  S
C1009      C1010   1.349       .  D
C1009      H1011   1.086       .  S
C1010      H1012   1.088       .  S
C1013      C1014   1.353       .  D
C1013      H1015   1.085       .  S
C1014      H1016   1.087       .  S
C1017      C1018   1.348       .  D
C1017      H1019   1.086       .  S
C1018      H1020   1.086       .  S
C1021      C1022   1.348       .  D
C1021      H1023   1.086       .  S
C1022      H1024   1.086       .  S
