geometry optimzed in LAMMPS
_audit_creation_date              2020-12-01 
_audit_creation_method            'lammps2cif' 
_symmetry_space_group_name_H-M    'P1' 
_symmetry_Int_Tables_number       1 
_symmetry_cell_setting            triclinic 
loop_ 
_symmetry_equiv_pos_as_xyz 
  x,y,z 
_cell_length_a                    41.76719458 
_cell_length_b                    41.75851426544923 
_cell_length_c                    34.30946036597533 
_cell_angle_alpha                 90.17776143432978 
_cell_angle_beta                  90.48791852865432 
_cell_angle_gamma                 90.29255455893049 
loop_ 
_atom_site_label 
_atom_site_type_symbol 
_atom_site_fract_x 
_atom_site_fract_y 
_atom_site_fract_z 
_atom_site_charge 
N1          N  0.26009532  0.50570057  0.14346900    -0.03000
C2          C  0.27172690  0.48028370  0.12330496    -0.00400
C3          C  0.27998569  0.48926626  0.08599695    -0.23300
C4          C  0.27336258  0.52123540  0.08288944    -0.23500
C5          C  0.26120341  0.53083641  0.11837620    -0.00500
H6          H  0.28879943  0.47390450  0.06304306     0.13300
H7          H  0.27687961  0.53596316  0.05735925     0.13400
N8          N  0.23363514  0.50600011  0.30657415    -0.03000
C9          C  0.22222256  0.53035442  0.32880232    -0.00400
C10         C  0.21403463  0.51920252  0.36534844    -0.23300
C11         C  0.22019239  0.48704039  0.36563954    -0.23500
C12         C  0.23199432  0.47948998  0.32936416    -0.00500
H13         H  0.20557946  0.53319603  0.38974843     0.13300
H14         H  0.21673375  0.47085637  0.38983732     0.13400
N15         N  0.99136241  0.74475421  0.40866997    -0.03000
C16         C  0.01559248  0.75115517  0.38352338    -0.00400
C17         C  0.00412150  0.75281333  0.34569772    -0.23300
C18         C  0.97182094  0.74766913  0.34727032    -0.23500
C19         C  0.96451574  0.74314209  0.38601060    -0.00500
H20         H  0.01790805  0.75735378  0.31969905     0.13300
H21         H  0.95522122  0.74796139  0.32287823     0.13400
N22         N  0.99431496  0.73410045  0.07298850    -0.03000
C23         C  0.97015068  0.72698499  0.09786355    -0.00400
C24         C  0.98158425  0.72581687  0.13582072    -0.23300
C25         C  0.01378946  0.73191613  0.13437990    -0.23500
C26         C  0.02098298  0.73664489  0.09565858    -0.00500
H27         H  0.96776061  0.72196652  0.16194946     0.13300
H28         H  0.03021503  0.73303735  0.15892401     0.13400
Zn29       Zn  0.26431265  0.73089663  0.31639544     1.49700
Zn30       Zn  0.20954570  0.78583608  0.32904468     1.49400
Zn31       Zn  0.21597642  0.72423543  0.38451392     1.49100
Zn32       Zn  0.27099898  0.77928475  0.38497430     1.49500
O33         O  0.23981111  0.75539999  0.35375228    -1.83600
O34         O  0.25104848  0.74660661  0.26586816    -0.74200
O35         O  0.16391316  0.77658876  0.34673983    -0.74100
O36         O  0.21876193  0.67934929  0.36227688    -0.73600
O37         O  0.21266382  0.78329959  0.26931758    -0.74300
O38         O  0.25477853  0.68349465  0.31557808    -0.73900
O39         O  0.16927514  0.73534896  0.38676672    -0.74400
O40         O  0.26857060  0.76419350  0.43978665    -0.73800
O41         O  0.21918533  0.83153264  0.34699750    -0.74600
O42         O  0.23160381  0.72544698  0.43992064    -0.74000
O43         O  0.26103273  0.82648136  0.38645652    -0.74400
O44         O  0.31647638  0.77413387  0.36599474    -0.74300
O45         O  0.31205249  0.73769955  0.31940902    -0.74100
C46         C  0.23169547  0.76581781  0.24969690     0.77700
C47         C  0.15189835  0.75648931  0.37055463     0.78100
C48         C  0.23517427  0.66676730  0.33512884     0.77100
C49         C  0.25171981  0.74349715  0.45754869     0.77500
C50         C  0.23986698  0.84388417  0.37028769     0.78600
C51         C  0.32920485  0.75653675  0.34005884     0.77700
Zn52       Zn  0.22099788  0.72379720  0.07243321     1.49700
Zn53       Zn  0.26891803  0.73293674  0.14214347     1.49400
Zn54       Zn  0.27527641  0.77991297  0.07240776     1.49100
Zn55       Zn  0.21343837  0.78542734  0.12685172     1.49500
O56         O  0.24444207  0.75578220  0.10329794    -1.83600
O57         O  0.22748433  0.67894959  0.09255602    -0.74200
O58         O  0.31625892  0.74227322  0.14142349    -0.74100
O59         O  0.27235066  0.76475473  0.01735208    -0.73600
O60         O  0.26257318  0.68512432  0.14056501    -0.74300
O61         O  0.23529796  0.72607028  0.01735594    -0.73900
O62         O  0.32102318  0.77582415  0.09216524    -0.74400
O63         O  0.22194284  0.83060939  0.10896782    -0.73800
O64         O  0.25312553  0.74719903  0.19234088    -0.74600
O65         O  0.26451194  0.82684040  0.07113225    -0.74000
O66         O  0.21479010  0.78367529  0.18635488    -0.74400
O67         O  0.16856288  0.77460927  0.10905311    -0.74300
O68         O  0.17346316  0.73201997  0.07105540    -0.74100
C69         C  0.24480200  0.66712708  0.11960461     0.77700
C70         C  0.33356924  0.75992126  0.11998971     0.78100
C71         C  0.25505886  0.74404159  0.99968857     0.77100
C72         C  0.24261000  0.84347030  0.08670575     0.77500
C73         C  0.23285405  0.76606792  0.20722535     0.78600
C74         C  0.15614239  0.75324352  0.08701243     0.77700
N75         N  0.49482006  0.75357152  0.15149372    -0.03000
C76         C  0.47170729  0.75825322  0.12377591    -0.00400
C77         C  0.48481449  0.75696489  0.08689669    -0.23300
C78         C  0.51681866  0.75154008  0.09163124    -0.23500
C79         C  0.52238190  0.74946713  0.13117521    -0.00500
H80         H  0.47227017  0.75911426  0.05930739     0.13300
H81         H  0.53433111  0.74943816  0.06869742     0.13400
N82         N  0.49120310  0.74324041  0.31779205    -0.03000
C83         C  0.51672391  0.73712291  0.34143483    -0.00400
C84         C  0.50744940  0.73591832  0.37994400    -0.23300
C85         C  0.47523687  0.74168573  0.38034591    -0.23500
C86         C  0.46582099  0.74620392  0.34206581    -0.00500
H87         H  0.52274688  0.73223536  0.40514082     0.13300
H88         H  0.46021006  0.74265129  0.40586580     0.13400
Zn89       Zn  0.76406937  0.77334625  0.40295149     1.49700
Zn90       Zn  0.77204730  0.72549230  0.33320537     1.49400
Zn91       Zn  0.71073322  0.71792965  0.38657944     1.49100
Zn92       Zn  0.71713641  0.78028149  0.33132423     1.49500
O93         O  0.74066146  0.74931467  0.36337963    -1.83600
O94         O  0.81198134  0.76500124  0.40341309    -0.74200
O95         O  0.76171116  0.67840676  0.32957652    -0.74100
O96         O  0.71229984  0.71841665  0.44616969    -0.73600
O97         O  0.81644597  0.72913502  0.35612167    -0.74300
O98         O  0.74891964  0.75694616  0.45258364    -0.73900
O99         O  0.71982119  0.67285547  0.36796774    -0.74400
O100        O  0.66948243  0.76955281  0.32988605    -0.73800
O101        O  0.77136960  0.74036708  0.27830317    -0.74600
O102        O  0.66606473  0.72690054  0.36801443    -0.74000
O103        O  0.73213995  0.77638662  0.27582313    -0.74400
O104        O  0.72345665  0.82627688  0.35079582    -0.74300
O105        O  0.75558934  0.82115481  0.40236449    -0.74100
C106        C  0.82883875  0.74550176  0.38380212     0.77700
C107        C  0.74030969  0.66086379  0.34491762     0.78100
C108        C  0.73009146  0.73637813  0.46726761     0.77100
C109        C  0.65302674  0.74720797  0.34531445     0.77500
C110        C  0.75324543  0.75918274  0.25932137     0.78600
C111        C  0.73897771  0.83845219  0.37947705     0.77700
Zn112      Zn  0.77433135  0.71880237  0.14651918     1.49700
Zn113      Zn  0.72154583  0.77559806  0.14144781     1.49400
Zn114      Zn  0.77076529  0.76439929  0.07567433     1.49100
Zn115      Zn  0.71396684  0.71262698  0.08812372     1.49500
O116        O  0.74480615  0.74240526  0.11323213    -1.83600
O117        O  0.77099267  0.73604097  0.20092913    -0.74200
O118        O  0.72879461  0.82025223  0.11976337    -0.74100
O119        O  0.81691928  0.75270538  0.07621947    -0.73600
O120        O  0.73504899  0.77529931  0.19739178    -0.74300
O121        O  0.82032237  0.72104725  0.12750412    -0.73900
O122        O  0.76833718  0.81185170  0.07843094    -0.74400
O123        O  0.71548437  0.71625931  0.02838078    -0.73800
O124        O  0.67450552  0.76563731  0.14288940    -0.74600
O125        O  0.75466261  0.75237795  0.02491367    -0.74000
O126        O  0.66903708  0.72125633  0.10770022    -0.74400
O127        O  0.72352909  0.66705241  0.10420127    -0.74300
O128        O  0.76250028  0.67183731  0.14819650    -0.74100
C129        C  0.75398653  0.75761757  0.21686509     0.77700
C130        C  0.74968269  0.83074839  0.09606652     0.78100
C131        C  0.83335690  0.73516386  0.09874009     0.77100
C132        C  0.73416941  0.73415378  0.00872301     0.77500
C133        C  0.65719685  0.74289420  0.12950252     0.78600
C134        C  0.74253658  0.65461232  0.12915074     0.77700
N135        N  0.74862370  0.49265877  0.15454108    -0.03000
C136        C  0.75265904  0.46650377  0.13137837    -0.00400
C137        C  0.75057670  0.47476929  0.09251702    -0.23300
C138        C  0.74517027  0.50705526  0.09134291    -0.23500
C139        C  0.74389585  0.51746444  0.12955235    -0.00500
H140        H  0.75181931  0.45875399  0.06771736     0.13300
H141        H  0.74229538  0.52147700  0.06540153     0.13400
N142        N  0.75587691  0.49866355  0.32124572    -0.03000
C143        C  0.75113003  0.52493961  0.34401377    -0.00400
C144        C  0.75380010  0.51716306  0.38299012    -0.23300
C145        C  0.76043190  0.48514151  0.38464591    -0.23500
C146        C  0.76164195  0.47429744  0.34661434    -0.00500
H147        H  0.75114732  0.53317994  0.40760461     0.20500
H148        H  0.76321812  0.47099484  0.41082657     0.13400
N149        N  0.72995563  0.99979167  0.41067459    -0.03000
C150        C  0.72528271  0.97527128  0.38487207    -0.00400
C151        C  0.71121211  0.98643778  0.35097486    -0.23300
C152        C  0.70719663  0.01871090  0.35563701    -0.23500
C153        C  0.71880992  0.02642485  0.39230496    -0.00500
H154        H  0.70508300  0.97259219  0.32523079     0.13300
H155        H  0.69813148  0.03513776  0.33388712     0.13400
N156        N  0.76082941  0.99205665  0.07424338    -0.03000
C157        C  0.76409570  0.96629140  0.09776382    -0.00400
C158        C  0.76703777  0.97564311  0.13626766    -0.23300
C159        C  0.76554763  0.00843658  0.13659003    -0.23500
C160        C  0.76178847  0.01782741  0.09825700    -0.00500
H161        H  0.76855829  0.96018954  0.16147632     0.13300
H162        H  0.76628426  0.02379297  0.16205871     0.13400
Zn163      Zn  0.77865570  0.21349649  0.34329627     1.49700
Zn164      Zn  0.71641098  0.22928208  0.39377007     1.49400
Zn165      Zn  0.77725836  0.27770439  0.39450478     1.49100
Zn166      Zn  0.73167669  0.27300362  0.32179993     1.49500
O167        O  0.75120673  0.24813028  0.36337141    -1.83600
O168        O  0.76431736  0.16979642  0.36356267    -0.74200
O169        O  0.71910032  0.24403181  0.44938134    -0.74100
O170        O  0.82412212  0.26595537  0.39316095    -0.73600
O171        O  0.72059760  0.18129316  0.39693460    -0.74300
O172        O  0.82481534  0.21986402  0.36091052    -0.73900
O173        O  0.76426805  0.27288760  0.45011575    -0.74400
O174        O  0.74095647  0.32016607  0.32544235    -0.73800
O175        O  0.67281501  0.23826870  0.37053882    -0.74600
O176        O  0.77314558  0.32405310  0.37687152    -0.74000
O177        O  0.68374677  0.26747295  0.31849473    -0.74400
O178        O  0.74929664  0.25803758  0.27210436    -0.74300
O179        O  0.77796848  0.21405401  0.28375084    -0.74100
C180        C  0.74083156  0.16103227  0.38460746     0.77700
C181        C  0.74121816  0.25909893  0.46748031     0.78100
C182        C  0.83930743  0.24194477  0.37991727     0.77100
C183        C  0.75791993  0.33700501  0.34868638     0.77500
C184        C  0.66367469  0.25312960  0.34008360     0.78600
C185        C  0.76600557  0.23464464  0.26048864     0.77700
Zn186      Zn  0.79099317  0.26580433  0.14536692     1.49700
Zn187      Zn  0.72849607  0.27218715  0.09169151     1.49400
Zn188      Zn  0.78272451  0.21910247  0.07271767     1.49100
Zn189      Zn  0.73712144  0.21023326  0.14446825     1.49500
O190        O  0.75983353  0.24202698  0.11352818    -1.83600
O191        O  0.78183368  0.31336245  0.14620912    -0.74200
O192        O  0.72870910  0.27064469  0.03246462    -0.74100
O193        O  0.83012049  0.22861680  0.07336555    -0.73600
O194        O  0.73812282  0.31723290  0.10947702    -0.74300
O195        O  0.83584645  0.26090048  0.12451891    -0.73900
O196        O  0.76619793  0.23386574  0.02182667    -0.74400
O197        O  0.74350010  0.16584611  0.12438678    -0.73800
O198        O  0.68369682  0.26223633  0.10999681    -0.74600
O199        O  0.77562841  0.17118086  0.07376122    -0.74000
O200        O  0.68963883  0.21745265  0.14387866    -0.74400
O201        O  0.75031932  0.21325110  0.20040886    -0.74300
O202        O  0.78730748  0.25201278  0.20128638    -0.74100
C203        C  0.75966385  0.33008745  0.13097693     0.77700
C204        C  0.74552210  0.25369018  0.00957651     0.78100
C205        C  0.84759180  0.24608197  0.09542604     0.77100
C206        C  0.75860268  0.15378426  0.09591780     0.77500
C207        C  0.67201287  0.23943500  0.12999520     0.78600
C208        C  0.76944952  0.23185606  0.21860178     0.77700
N209        N  0.51005498  0.24271168  0.14036454    -0.03000
C210        C  0.48609170  0.24477430  0.11336873    -0.00400
C211        C  0.49726090  0.23692303  0.07673761    -0.23300
C212        C  0.52914534  0.23029729  0.08093071    -0.23500
C213        C  0.53641489  0.23408360  0.11998297    -0.00500
H214        H  0.48362852  0.23612833  0.04977810     0.13300
H215        H  0.54557875  0.22436222  0.05780897     0.13400
N216        N  0.50314148  0.27059404  0.30381634    -0.03000
C217        C  0.52904760  0.27238343  0.32809477    -0.00400
C218        C  0.52011650  0.28140480  0.36512013    -0.23300
C219        C  0.48762596  0.28503391  0.36415933    -0.23500
C220        C  0.47759685  0.27789484  0.32662459    -0.00500
H221        H  0.53555678  0.28399406  0.39044280     0.13300
H222        H  0.47260183  0.29071307  0.38876207     0.13400
N223        N  0.25239596  0.00629927  0.39797420    -0.03000
C224        C  0.26069945  0.03151661  0.37505078    -0.00400
C225        C  0.26247725  0.02221344  0.33648948    -0.23300
C226        C  0.25526366  0.99027457  0.33524852    -0.23500
C227        C  0.24916391  0.98092781  0.37307473    -0.00500
H228        H  0.26784866  0.03728987  0.31176229     0.13300
H229        H  0.25472865  0.97528341  0.30945483     0.13400
N230        N  0.24828361  0.00490626  0.06661689    -0.03000
C231        C  0.23851644  0.97973918  0.08851166    -0.00400
C232        C  0.23490405  0.98876343  0.12696643    -0.23300
C233        C  0.24269579  0.02057243  0.12909619    -0.23500
C234        C  0.25093679  0.02995226  0.09188062    -0.00500
H235        H  0.22831869  0.97352817  0.15110553     0.13300
H236        H  0.24234715  0.03537247  0.15504415     0.13400
N237        N  0.00285658  0.24451972  0.39927844    -0.03000
C238        C  0.97618021  0.23923663  0.37709064    -0.00400
C239        C  0.98396730  0.23646968  0.33823812    -0.23300
C240        C  0.01642693  0.24061248  0.33600570    -0.23500
C241        C  0.02745255  0.24589087  0.37358546    -0.00500
H242        H  0.96757831  0.23285750  0.31400007     0.13300
H243        H  0.03051619  0.24048267  0.30967636     0.13400
N244        N  0.00877975  0.25371134  0.06611747    -0.03000
C245        C  0.98350696  0.25519557  0.09067382    -0.00400
C246        C  0.99392525  0.25668599  0.12896642    -0.23300
C247        C  0.02668522  0.25631263  0.12816048    -0.23500
C248        C  0.03523501  0.25447476  0.08942727    -0.00500
H249        H  0.97919413  0.25857378  0.15466420     0.13300
H250        H  0.04267061  0.25801955  0.15308477     0.13400
Zn251      Zn  0.23059182  0.23242612  0.39275605     1.49700
Zn252      Zn  0.22197909  0.27825041  0.32201020     1.49400
Zn253      Zn  0.28239055  0.28919294  0.37904902     1.49100
Zn254      Zn  0.28002690  0.22597786  0.32553228     1.49500
O255        O  0.25399797  0.25675923  0.35456221    -1.83600
O256        O  0.18299456  0.23807575  0.39029605    -0.74200
O257        O  0.23028498  0.32596517  0.31950450    -0.74100
O258        O  0.28114740  0.28663553  0.43879154    -0.73600
O259        O  0.17606487  0.27086368  0.34054420    -0.74300
O260        O  0.24471536  0.24781869  0.44350967    -0.73900
O261        O  0.27060250  0.33373366  0.36084595    -0.74400
O262        O  0.32669968  0.23912437  0.32454465    -0.73800
O263        O  0.22716117  0.26319879  0.26726589    -0.74600
O264        O  0.32778454  0.28333433  0.36049678    -0.74000
O265        O  0.26665351  0.22739506  0.26953324    -0.74400
O266        O  0.27640163  0.18042920  0.34655245    -0.74300
O267        O  0.23978523  0.18533751  0.39237578    -0.74100
C268        C  0.16458950  0.25421939  0.36835449     0.77700
C269        C  0.25040671  0.34459051  0.33622679     0.78100
C270        C  0.26388011  0.26783641  0.45908433     0.77100
C271        C  0.34178388  0.26312275  0.33865997     0.77500
C272        C  0.24647121  0.24415359  0.25063642     0.78600
C273        C  0.25894180  0.16810656  0.37299444     0.77700
Zn274      Zn  0.23570267  0.23061356  0.06795705     1.49700
Zn275      Zn  0.28968483  0.28603221  0.07979517     1.49400
Zn276      Zn  0.22924134  0.27996592  0.13514381     1.49100
Zn277      Zn  0.28456559  0.22512091  0.13642024     1.49500
O278        O  0.26022302  0.25568638  0.10508705    -1.83600
O279        O  0.24827440  0.24521659  0.01711333    -0.74200
O280        O  0.28287591  0.33119571  0.09994716    -0.74100
O281        O  0.18427926  0.27600806  0.11324592    -0.73600
O282        O  0.28380042  0.28503103  0.02062324    -0.74300
O283        O  0.18835653  0.23739766  0.06933324    -0.73900
O284        O  0.24054855  0.32708336  0.13815201    -0.74400
O285        O  0.26983037  0.22831598  0.19158254    -0.73800
O286        O  0.33548669  0.27506055  0.09330099    -0.74600
O287        O  0.23013040  0.26392731  0.18981605    -0.74000
O288        O  0.33195017  0.23520671  0.13559222    -0.74400
O289        O  0.27913032  0.17914373  0.11763622    -0.74300
O290        O  0.24403468  0.18359417  0.06954855    -0.74100
C291        C  0.26589864  0.26600071  0.00102260     0.77700
C292        C  0.26264478  0.34384573  0.12291010     0.78100
C293        C  0.17158305  0.25757296  0.08775964     0.77100
C294        C  0.24818542  0.24462886  0.20828755     0.77500
C295        C  0.34870617  0.25522069  0.11652147     0.78600
C296        C  0.26217269  0.16643027  0.09059188     0.77700
C297        C  0.08527937  0.28510356  0.08769682    -0.25800
C298        C  0.06900692  0.25681871  0.07737289    -0.13900
C299        C  0.08682884  0.22979850  0.06548634     0.36800
C300        C  0.12042633  0.23148773  0.06617646    -0.25200
C301        C  0.13659405  0.25889954  0.08020541    -0.14500
C302        C  0.11872447  0.28641957  0.08920012     0.37800
N303        N  0.13435510  0.31559578  0.10076764    -0.88700
H304        H  0.07184023  0.30582265  0.09718751     0.19000
H305        H  0.13387272  0.21030911  0.05841502     0.18900
N306        N  0.07199597  0.19981073  0.05498525    -0.87800
H307        H  0.12632010  0.32180358  0.12855183     0.36300
H308        H  0.12731833  0.33359316  0.08143305     0.41400
H309        H  0.04719313  0.20086944  0.05734896     0.41000
H310        H  0.07959475  0.18267580  0.07515763     0.35900
C311        C  0.08014275  0.22931860  0.40011076    -0.25800
C312        C  0.06161378  0.25283676  0.38184892    -0.13900
C313        C  0.07717134  0.27838110  0.36246612     0.36800
C314        C  0.11056215  0.27831434  0.35909145    -0.25200
C315        C  0.12931056  0.25389767  0.37542857    -0.14500
C316        C  0.11384572  0.22959580  0.39742745     0.37800
N317        N  0.13201305  0.20423118  0.41504893    -0.88700
H318        H  0.06816611  0.20954202  0.41440031     0.19000
H319        H  0.12187842  0.29751821  0.34300098     0.18900
N320        N  0.05973174  0.30415120  0.34450294    -0.87800
H321        H  0.11678470  0.18699666  0.42705279     0.36300
H322        H  0.14481416  0.21414703  0.43848745     0.41400
H323        H  0.03537755  0.30287702  0.35086198     0.41000
H324        H  0.06783834  0.32553237  0.35721610     0.35900
C325        C  0.00986848  0.27644052  0.45933035    -0.25800
C326        C  0.00459834  0.24661909  0.44130305    -0.13900
C327        C  0.00025594  0.21918908  0.46496279     0.36800
C328        C  0.00029587  0.22258343  0.00606763    -0.25200
C329        C  0.00766703  0.25186613  0.02417585    -0.14500
C330        C  0.01362595  0.27898375  0.00087740     0.37800
N331        N  0.01928006  0.30985049  0.01785211    -0.88700
H332        H  0.01311448  0.29753562  0.44148624     0.19000
H333        H  0.99594900  0.20163407  0.02378887     0.18900
N334        N  0.99560492  0.18772094  0.44868707    -0.87800
H335        H  0.03974754  0.30867481  0.03538948     0.36300
H336        H  0.99981382  0.31545907  0.03551429     0.41400
H337        H  0.99677045  0.18798138  0.41833977     0.41000
H338        H  0.01469094  0.17353532  0.45814646     0.35900
C339        C  0.24073275  0.08125972  0.05745599    -0.25800
C340        C  0.25978657  0.06340260  0.08298273    -0.13900
C341        C  0.28266161  0.07920657  0.10655913     0.36800
C342        C  0.28401688  0.11268797  0.10722465    -0.25200
C343        C  0.26305247  0.13105645  0.08427574    -0.14500
C344        C  0.24237340  0.11498617  0.05735388     0.37800
N345        N  0.22222828  0.13272496  0.03107996    -0.88700
H346        H  0.22315924  0.06901799  0.03931408     0.19000
H347        H  0.30085899  0.12425679  0.12698031     0.18900
N348        N  0.30385673  0.06116168  0.13101873    -0.87800
H349        H  0.20768136  0.11725794  0.01459636     0.36300
H350        H  0.23720044  0.14427134  0.01124108     0.41400
H351        H  0.30033041  0.06830334  0.15989169     0.41000
H352        H  0.32736881  0.06702510  0.12348569     0.35900
C353        C  0.23691022  0.08193095  0.39998715    -0.25800
C354        C  0.26387712  0.06559717  0.38653875    -0.13900
C355        C  0.29072643  0.08320841  0.37402308     0.36800
C356        C  0.28891682  0.11668693  0.37117620    -0.25200
C357        C  0.26086868  0.13310537  0.38108648    -0.14500
C358        C  0.23501064  0.11558326  0.39735080     0.37800
N359        N  0.20624206  0.13161675  0.40905155    -0.88700
H360        H  0.21623724  0.06826663  0.40933553     0.19000
H361        H  0.30923640  0.12992384  0.36003993     0.18900
N362        N  0.31919320  0.06667503  0.36230673    -0.87800
H363        H  0.19005000  0.11538959  0.42122170     0.36300
H364        H  0.19524006  0.14060445  0.38389527     0.41400
H365        H  0.32834354  0.05499450  0.38687755     0.41000
H366        H  0.33676247  0.08295340  0.35346105     0.35900
C367        C  0.27912514  0.01613886  0.46090788    -0.25800
C368        C  0.25169025  0.00613532  0.44013220    -0.13900
C369        C  0.22427789  0.99640526  0.46126039     0.36800
C370        C  0.22461140  0.00123773  0.00099180    -0.25200
C371        C  0.25188941  0.00522713  0.02477507    -0.14500
C372        C  0.28212834  0.00898829  0.00705622     0.37800
N373        N  0.31127244  0.01159049  0.02945554    -0.88700
H374        H  0.30016046  0.02369468  0.44507276     0.19000
H375        H  0.20144957  0.99823042  0.01451768     0.18900
N376        N  0.19449676  0.98812323  0.44238710    -0.87800
H377        H  0.32547641  0.99190529  0.02234621     0.36300
H378        H  0.30694377  0.00989903  0.05928366     0.41400
H379        H  0.19557913  0.99190839  0.41241165     0.41000
H380        H  0.17713899  0.00397960  0.45256652     0.35900
C381        C  0.42386585  0.30144550  0.32571593    -0.25800
C382        C  0.44299085  0.27478637  0.31746700    -0.13900
C383        C  0.42808896  0.24454403  0.31263514     0.36800
C384        C  0.39492862  0.24145110  0.31799667    -0.25200
C385        C  0.37620391  0.26781135  0.32917825    -0.14500
C386        C  0.39085177  0.29831857  0.33156235     0.37800
N387        N  0.37248937  0.32621889  0.34062514    -0.88700
H388        H  0.43504390  0.32469048  0.33009750     0.19000
H389        H  0.38407895  0.21790742  0.31539839     0.18900
N390        N  0.44616559  0.21623031  0.30491333    -0.87800
H391        H  0.37516400  0.34260542  0.31789429     0.36300
H392        H  0.38205271  0.33658006  0.36598490     0.41400
H393        H  0.46378235  0.21375510  0.32650488     0.41000
H394        H  0.45720979  0.21888540  0.27795372     0.35900
C395        C  0.43448092  0.23444940  0.14725278    -0.25800
C396        C  0.45202108  0.25237113  0.12032775    -0.13900
C397        C  0.43584824  0.27371918  0.09528895     0.36800
C398        C  0.40230273  0.27485738  0.09552078    -0.25200
C399        C  0.38431308  0.25528790  0.12051621    -0.14500
C400        C  0.40083616  0.23575253  0.14767717     0.37800
N401        N  0.38371952  0.21667043  0.17523892    -0.88700
H402        H  0.44676859  0.21802892  0.16659208     0.19000
H403        H  0.39021196  0.29053735  0.07513585     0.18900
N404        N  0.45364782  0.29353471  0.06886384    -0.87800
H405        H  0.39136350  0.22333530  0.20322202     0.36300
H406        H  0.38989971  0.19269942  0.17085040     0.41400
H407        H  0.46765898  0.30925394  0.08564804     0.41000
H408        H  0.43824239  0.30766618  0.05208142     0.35900
C409        C  0.49524938  0.27856925  0.19446725    -0.25800
C410        C  0.50826715  0.24952614  0.18168282    -0.13900
C411        C  0.51926609  0.22741110  0.20969141     0.36800
C412        C  0.51710654  0.23463816  0.24963898    -0.25200
C413        C  0.50359939  0.26345810  0.26251261    -0.14500
C414        C  0.49294442  0.28583044  0.23430268     0.37800
N415        N  0.48089360  0.31662621  0.24499477    -0.88700
H416        H  0.48720086  0.29593785  0.17319298     0.19000
H417        H  0.52563174  0.21745109  0.27085845     0.18900
N418        N  0.53197378  0.19723427  0.19773449    -0.87800
H419        H  0.45956367  0.31359294  0.26005067     0.36300
H420        H  0.49751202  0.32808169  0.26324235     0.41400
H421        H  0.55522214  0.19540436  0.20904128     0.41000
H422        H  0.51810568  0.17910545  0.21017795     0.35900
C423        C  0.62177151  0.20782028  0.13193371    -0.25800
C424        C  0.63706595  0.23762674  0.13585679    -0.13900
C425        C  0.61858228  0.26527358  0.14257026     0.36800
C426        C  0.58497478  0.26286339  0.14191447    -0.25200
C427        C  0.56977404  0.23348290  0.13422509    -0.14500
C428        C  0.58837389  0.20540814  0.13057144     0.37800
N429        N  0.57428954  0.17438427  0.12348469    -0.88700
H430        H  0.63585632  0.18641816  0.12736447     0.19000
H431        H  0.57064299  0.28432617  0.14445402     0.18900
N432        N  0.63399019  0.29573358  0.14885618    -0.87800
H433        H  0.58085987  0.15960199  0.14672882     0.36300
H434        H  0.54932834  0.17526445  0.12366560     0.41400
H435        H  0.64711512  0.29420998  0.17487538     0.41000
H436        H  0.61696941  0.31367423  0.15294875     0.35900
C437        C  0.89744631  0.27867707  0.09801677    -0.25800
C438        C  0.88216093  0.25001668  0.08696176    -0.13900
C439        C  0.90033432  0.22578660  0.06894235     0.36800
C440        C  0.93372964  0.22926135  0.06628878    -0.25200
C441        C  0.94918986  0.25694748  0.08019890    -0.14500
C442        C  0.93052047  0.28274371  0.09402486     0.37800
N443        N  0.94450232  0.31283513  0.10590996    -0.88700
H444        H  0.88363934  0.29806002  0.11040800     0.19000
H445        H  0.94766788  0.20915257  0.05626291     0.18900
N446        N  0.88536619  0.19683706  0.05544308    -0.87800
H447        H  0.93412910  0.33069771  0.08872006     0.36300
H448        H  0.96893488  0.31367489  0.09983622     0.41400
H449        H  0.89582978  0.17760357  0.07016116     0.41000
H450        H  0.89032445  0.19431378  0.02577239     0.35900
C451        C  0.57419696  0.23606180  0.33853100    -0.25800
C452        C  0.56242987  0.26335523  0.31959095    -0.13900
C453        C  0.58431667  0.28515475  0.30277978     0.36800
C454        C  0.61731394  0.28025863  0.30790023    -0.25200
C455        C  0.62902193  0.25449962  0.33007933    -0.14500
C456        C  0.60713768  0.23147081  0.34401133     0.37800
N457        N  0.61813317  0.20376167  0.36458202    -0.88700
H458        H  0.55757954  0.21929019  0.35161525     0.19000
H459        H  0.63380125  0.29793033  0.29644825     0.18900
N460        N  0.57413946  0.31357857  0.28282388    -0.87800
H461        H  0.60980417  0.18343232  0.34970936     0.36300
H462        H  0.60788369  0.20387358  0.39227973     0.41400
H463        H  0.54926423  0.31502077  0.28153172     0.41000
H464        H  0.58190047  0.31179889  0.25402567     0.35900
C465        C  0.89207031  0.26879705  0.39199297    -0.25800
C466        C  0.87462113  0.24027713  0.38602717    -0.13900
C467        C  0.89144846  0.21106722  0.38425162     0.36800
C468        C  0.92503585  0.21111643  0.38645866    -0.25200
C469        C  0.94246632  0.23980615  0.38968621    -0.14500
C470        C  0.92567709  0.26906195  0.39294077     0.37800
N471        N  0.94172189  0.29959953  0.39476760    -0.88700
H472        H  0.87962114  0.29146899  0.39347514     0.19000
H473        H  0.93768732  0.18871013  0.38284012     0.18900
N474        N  0.87468231  0.18131489  0.37920274    -0.87800
H475        H  0.93601329  0.31202991  0.36925425     0.36300
H476        H  0.96654966  0.29717227  0.39531703     0.41400
H477        H  0.88065548  0.16641705  0.40256503     0.41000
H478        H  0.88282006  0.17051746  0.35361470     0.35900
C479        C  0.78142809  0.10260914  0.07035892    -0.25800
C480        C  0.75636161  0.11881217  0.08905049    -0.13900
C481        C  0.73003376  0.10097413  0.10299029     0.36800
C482        C  0.73102806  0.06754765  0.10234830    -0.25200
C483        C  0.75745721  0.05148620  0.08719868    -0.14500
C484        C  0.78212039  0.06896027  0.06940748     0.37800
N485        N  0.80873238  0.05265661  0.05255355    -0.88700
H486        H  0.80141105  0.11593636  0.05851184     0.19000
H487        H  0.71174252  0.05403004  0.11555212     0.18900
N488        N  0.70242692  0.11664766  0.11840642    -0.87800
H489        H  0.82960879  0.06048063  0.06673055     0.36300
H490        H  0.81014655  0.05939589  0.02328460     0.41400
H491        H  0.69930042  0.10898855  0.14711539     0.41000
H492        H  0.68243816  0.10926171  0.10209840     0.35900
C493        C  0.70439190  0.11492329  0.39661048    -0.25800
C494        C  0.73591675  0.12659188  0.39417848    -0.13900
C495        C  0.76151064  0.10501175  0.40070475     0.36800
C496        C  0.75507265  0.07225492  0.40590304    -0.25200
C497        C  0.72363302  0.06031326  0.40405463    -0.14500
C498        C  0.69792386  0.08221406  0.40144524     0.37800
N499        N  0.66500504  0.07187704  0.40148337    -0.88700
H500        H  0.68442727  0.13114136  0.39282604     0.19000
H501        H  0.77493631  0.05572250  0.40792278     0.18900
N502        N  0.79422434  0.11545754  0.40175670    -0.87800
H503        H  0.65382266  0.08323265  0.42487780     0.36300
H504        H  0.66314539  0.04738195  0.40706678     0.41400
H505        H  0.79654530  0.13374278  0.42249575     0.41000
H506        H  0.80035397  0.12440450  0.37441624     0.35900
C507        C  0.78277069  0.98199090  0.00926694    -0.25800
C508        C  0.75723663  0.99198579  0.03245177    -0.13900
C509        C  0.72890231  0.00272885  0.01448255     0.36800
C510        C  0.72298083  0.00991617  0.48088205    -0.25200
C511        C  0.74169658  0.99784877  0.45037370    -0.14500
C512        C  0.77149066  0.98380087  0.45921999     0.37800
N513        N  0.79183641  0.97312482  0.42830629    -0.88700
H514        H  0.80460375  0.97395030  0.02331878     0.19000
H515        H  0.70012362  0.02075274  0.47399934     0.18900
N516        N  0.70224020  0.01196916  0.03780279    -0.87800
H517        H  0.81306399  0.96359955  0.43960835     0.36300
H518        H  0.79824448  0.99321014  0.41195804     0.41400
H519        H  0.68273221  0.99742473  0.03006702     0.41000
H520        H  0.69644591  0.03561115  0.03089549     0.35900
C521        C  0.73807819  0.42354737  0.32193286    -0.25800
C522        C  0.76470148  0.43977125  0.33755099    -0.13900
C523        C  0.79047464  0.42186560  0.35318210     0.36800
C524        C  0.78772351  0.38851162  0.35595007    -0.25200
C525        C  0.76020347  0.37224255  0.34273933    -0.14500
C526        C  0.73541527  0.38995478  0.32448135     0.37800
N527        N  0.70689364  0.37411028  0.31049322    -0.88700
H528        H  0.71820072  0.43730536  0.31046814     0.19000
H529        H  0.80728801  0.37522800  0.36896770     0.18900
N530        N  0.81940617  0.43679991  0.36752967    -0.87800
H531        H  0.69130040  0.39051372  0.29750770     0.36300
H532        H  0.69498509  0.36482986  0.33468551     0.41400
H533        H  0.81949057  0.46140497  0.36225967     0.41000
H534        H  0.83840012  0.42761686  0.35136805     0.35900
C535        C  0.78297124  0.41763661  0.14806739    -0.25800
C536        C  0.75317833  0.43259572  0.14344000    -0.13900
C537        C  0.72535009  0.41347318  0.13880008     0.36800
C538        C  0.72828256  0.38019272  0.13611383    -0.25200
C539        C  0.75823097  0.36515325  0.13835768    -0.14500
C540        C  0.78583660  0.38404784  0.14594962     0.37800
N541        N  0.81682202  0.36941982  0.14931183    -0.88700
H542        H  0.80438230  0.43229557  0.15036397     0.19000
H543        H  0.70681976  0.36599596  0.13117122     0.18900
N544        N  0.69395093  0.42705946  0.13424205    -0.87800
H545        H  0.83439369  0.38665428  0.15555706     0.36300
H546        H  0.82244753  0.35970555  0.12210701     0.41400
H547        H  0.69441953  0.45189534  0.13753870     0.41000
H548        H  0.67983259  0.41837017  0.15694776     0.35900
C549        C  0.72698366  0.50842634  0.25946590    -0.25800
C550        C  0.75411329  0.49682315  0.27916877    -0.13900
C551        C  0.77945100  0.48381308  0.25734814     0.36800
C552        C  0.77695069  0.48233762  0.21641783    -0.25200
C553        C  0.74978934  0.49379336  0.19668739    -0.14500
C554        C  0.72442670  0.50678691  0.21850194     0.37800
N555        N  0.69600962  0.51780203  0.19900938    -0.88700
H556        H  0.70751471  0.51827269  0.27627299     0.19000
H557        H  0.79665414  0.47301047  0.19965556     0.18900
N558        N  0.80796493  0.47294612  0.27679765    -0.87800
H559        H  0.67966722  0.52682474  0.21913449     0.36300
H560        H  0.68508078  0.49797815  0.18571832     0.41400
H561        H  0.81878380  0.49279567  0.29020433     0.41000
H562        H  0.82436522  0.46408085  0.25666062     0.35900
C563        C  0.71421189  0.60215662  0.12265754    -0.25800
C564        C  0.74125487  0.61936351  0.13571666    -0.13900
C565        C  0.76675603  0.60233767  0.15333530     0.36800
C566        C  0.76558411  0.56870275  0.15512621    -0.25200
C567        C  0.73955038  0.55164830  0.13939010    -0.14500
C568        C  0.71289323  0.56869415  0.12454131     0.37800
N569        N  0.68455330  0.55281794  0.10990789    -0.88700
H570        H  0.69400713  0.61471879  0.11003137     0.19000
H571        H  0.78618575  0.55580442  0.16619365     0.18900
N572        N  0.79471371  0.61880261  0.16744366    -0.87800
H573        H  0.66523412  0.56088565  0.12638605     0.36300
H574        H  0.68551052  0.52814502  0.11446324     0.41400
H575        H  0.81451649  0.61011748  0.15233703     0.41000
H576        H  0.79774916  0.61318144  0.19691595     0.35900
C577        C  0.72570259  0.88500762  0.09137204    -0.25800
C578        C  0.75293347  0.86557301  0.08954019    -0.13900
C579        C  0.78320018  0.87990726  0.08360917     0.36800
C580        C  0.78592079  0.91334129  0.08236226    -0.25200
C581        C  0.75893892  0.93270061  0.08660277    -0.14500
C582        C  0.72827533  0.91841968  0.08974789     0.37800
N583        N  0.69953467  0.93696165  0.09362641    -0.88700
H584        H  0.70229695  0.87420486  0.09523256     0.19000
H585        H  0.80947896  0.92424815  0.08063053     0.18900
N586        N  0.81150824  0.86076348  0.08146047    -0.87800
H587        H  0.68488751  0.93171879  0.06955520     0.36300
H588        H  0.70420267  0.96149238  0.09245721     0.41400
H589        H  0.82699950  0.86776116  0.10406520     0.41000
H590        H  0.82275666  0.86569676  0.05502886     0.35900
C591        C  0.76716568  0.61137825  0.32007514    -0.25800
C592        C  0.74001916  0.62577077  0.33666638    -0.13900
C593        C  0.71395475  0.60597718  0.34716515     0.36800
C594        C  0.71675971  0.57257984  0.34457393    -0.25200
C595        C  0.74503588  0.55826192  0.33157732    -0.14500
C596        C  0.77001372  0.57797140  0.31778489     0.37800
N597        N  0.79936228  0.56479701  0.30381868    -0.88700
H598        H  0.78723051  0.62602572  0.31099002     0.19000
H599        H  0.69750381  0.55765367  0.35543101     0.18900
N600        N  0.68491347  0.61949439  0.36164302    -0.87800
H601        H  0.79412575  0.55046669  0.27958497     0.36300
H602        H  0.80937554  0.55045581  0.32562208     0.41400
H603        H  0.68098613  0.61041099  0.38957633     0.41000
H604        H  0.66605866  0.61184362  0.34360751     0.35900
C605        C  0.75461314  0.89282540  0.35840968    -0.25800
C606        C  0.73855982  0.87358349  0.38529721    -0.13900
C607        C  0.72159460  0.88834347  0.41602590     0.36800
C608        C  0.71948814  0.92196756  0.41779007    -0.25200
C609        C  0.73415382  0.94108534  0.38941278    -0.14500
C610        C  0.75273450  0.92628862  0.36037935     0.37800
N611        N  0.76920788  0.94535435  0.33219388    -0.88700
H612        H  0.76817643  0.88179290  0.33520507     0.19000
H613        H  0.70488817  0.93305143  0.43998192     0.18900
N614        N  0.70511141  0.86973301  0.44459940    -0.87800
H615        H  0.76103275  0.93861290  0.30445690     0.36300
H616        H  0.79360242  0.94003448  0.33409961     0.41400
H617        H  0.72184479  0.85531804  0.45891925     0.41000
H618        H  0.68862737  0.85483590  0.43019204     0.35900
C619        C  0.56561498  0.76452885  0.31810898    -0.25800
C620        C  0.55086194  0.73614916  0.33057725    -0.13900
C621        C  0.57011522  0.71022655  0.34264089     0.36800
C622        C  0.60322228  0.71445151  0.34590935    -0.25200
C623        C  0.61810038  0.74372593  0.33669400    -0.14500
C624        C  0.59914360  0.76857207  0.32065857     0.37800
N625        N  0.61353000  0.79835262  0.30906015    -0.88700
H626        H  0.55076389  0.78439675  0.30898239     0.19000
H627        H  0.61733307  0.69460955  0.35672191     0.18900
N628        N  0.55676790  0.67970392  0.35343989    -0.87800
H629        H  0.59597687  0.81460512  0.30018034     0.36300
H630        H  0.62733253  0.79370079  0.28442549     0.41400
H631        H  0.53209550  0.67886151  0.34842860     0.41000
H632        H  0.56652596  0.66245022  0.33492075     0.35900
C633        C  0.60778905  0.77057243  0.15173977    -0.25800
C634        C  0.62253556  0.74221679  0.13916854    -0.13900
C635        C  0.60358556  0.71431881  0.13481515     0.36800
C636        C  0.57021738  0.71621219  0.13874680    -0.25200
C637        C  0.55524576  0.74550428  0.14661481    -0.14500
C638        C  0.57447074  0.77264715  0.15525886     0.37800
N639        N  0.56104965  0.80336308  0.16426613    -0.88700
H640        H  0.62197091  0.79207281  0.15636828     0.19000
H641        H  0.55570250  0.69528401  0.13201719     0.18900
N642        N  0.61787374  0.68425657  0.12509142    -0.87800
H643        H  0.56905174  0.80978283  0.19217586     0.36300
H644        H  0.53620949  0.80205249  0.16575839     0.41400
H645        H  0.60774675  0.67620920  0.09883711     0.41000
H646        H  0.61196594  0.66779114  0.14680518     0.35900
C647        C  0.50221674  0.72291634  0.21184861    -0.25800
C648        C  0.49142500  0.75086404  0.19334326    -0.13900
C649        C  0.47972559  0.77627407  0.21674380     0.36800
C650        C  0.47979781  0.77331936  0.25752423    -0.25200
C651        C  0.49109691  0.74554910  0.27579263    -0.14500
C652        C  0.50194207  0.72001328  0.25263138     0.37800
N653        N  0.51209071  0.69082017  0.27050900    -0.88700
H654        H  0.51095806  0.70320764  0.19438283     0.19000
H655        H  0.47128140  0.79299212  0.27521478     0.18900
N656        N  0.46845992  0.80567634  0.20037630    -0.87800
H657        H  0.49770777  0.67222142  0.25962602     0.36300
H658        H  0.53567683  0.68644940  0.26211765     0.41400
H659        H  0.48542266  0.81467408  0.18107658     0.41000
H660        H  0.44715884  0.80134288  0.18525873     0.35900
C661        C  0.38657069  0.78516025  0.10689600    -0.25800
C662        C  0.36893216  0.76166937  0.12673030    -0.13900
C663        C  0.38570833  0.73953691  0.15071362     0.36800
C664        C  0.41950197  0.73982390  0.15138616    -0.25200
C665        C  0.43677499  0.76201523  0.12932721    -0.14500
C666        C  0.42006244  0.78555604  0.10809932     0.37800
N667        N  0.43717916  0.80976841  0.08716580    -0.88700
H668        H  0.37439699  0.80299271  0.08941072     0.19000
H669        H  0.43234877  0.72177743  0.16776637     0.18900
N670        N  0.36866087  0.71603012  0.17307203    -0.87800
H671        H  0.43051365  0.80821085  0.05777130     0.36300
H672        H  0.43004669  0.83213008  0.09766308     0.41400
H673        H  0.35666076  0.72823607  0.19518815     0.41000
H674        H  0.38460817  0.70056844  0.18710388     0.35900
C675        C  0.26520503  0.93046084  0.06571798    -0.25800
C676        C  0.23692372  0.94588034  0.07647873    -0.13900
C677        C  0.20961649  0.92761807  0.08548957     0.36800
C678        C  0.21176849  0.89416522  0.08668849    -0.25200
C679        C  0.24078215  0.87848236  0.07915826    -0.14500
C680        C  0.26750902  0.89684062  0.06682721     0.37800
N681        N  0.29742790  0.88169160  0.05799023    -0.88700
H682        H  0.28623349  0.94475127  0.05931532     0.19000
H683        H  0.19089570  0.88036142  0.09500689     0.18900
N684        N  0.18026862  0.94337340  0.09550136    -0.87800
H685        H  0.31512595  0.89884321  0.05241698     0.36300
H686        H  0.29418218  0.86893260  0.03198683     0.41400
H687        H  0.16244988  0.92658848  0.10199806     0.41000
H688        H  0.17240609  0.95581179  0.07084442     0.35900
C689        C  0.37942077  0.73270951  0.31289450    -0.25800
C690        C  0.36457795  0.75729538  0.33438785    -0.13900
C691        C  0.38406049  0.78132387  0.35156546     0.36800
C692        C  0.41743684  0.77876593  0.35005218    -0.25200
C693        C  0.43211362  0.75280152  0.33156661    -0.14500
C694        C  0.41305171  0.73009369  0.31156958     0.37800
N695        N  0.42775017  0.70365268  0.29177835    -0.88700
H696        H  0.36483367  0.71446255  0.29881272     0.19000
H697        H  0.43206048  0.79632885  0.36540223     0.18900
N698        N  0.37022540  0.80806632  0.37139501    -0.87800
H699        H  0.41037203  0.68918615  0.27833748     0.36300
H700        H  0.43914520  0.68948538  0.31274208     0.41400
H701        H  0.37835296  0.82903424  0.35805069     0.41000
H702        H  0.37860144  0.80809480  0.40020077     0.35900
C703        C  0.21606973  0.89790987  0.35931580    -0.25800
C704        C  0.23944957  0.87921975  0.37803582    -0.13900
C705        C  0.26253568  0.89497331  0.40222739     0.36800
C706        C  0.26335482  0.92879184  0.40390664    -0.25200
C707        C  0.24156903  0.94709517  0.38233792    -0.14500
C708        C  0.21704370  0.93141243  0.36117012     0.37800
N709        N  0.19387750  0.94967532  0.33980729    -0.88700
H710        H  0.19760318  0.88663427  0.34156775     0.19000
H711        H  0.28236564  0.94087508  0.41993578     0.18900
N712        N  0.28589124  0.87686841  0.42372348    -0.87800
H713        H  0.17112035  0.94326588  0.34965469     0.36300
H714        H  0.19535880  0.94326950  0.31038746     0.41400
H715        H  0.27363741  0.86398507  0.44502683     0.41000
H716        H  0.30173416  0.89213007  0.43866352     0.35900
C717        C  0.06772811  0.77261527  0.09587788    -0.25800
C718        C  0.05369522  0.74403891  0.08275811    -0.13900
C719        C  0.07285854  0.72043530  0.06563870     0.36800
C720        C  0.10624956  0.72471456  0.06473251    -0.25200
C721        C  0.12077826  0.75220953  0.08122230    -0.14500
C722        C  0.10093211  0.77712252  0.09485243     0.37800
N723        N  0.11429147  0.80671942  0.10878211    -0.88700
H724        H  0.05293193  0.79090301  0.10900700     0.19000
H725        H  0.12084766  0.70556039  0.05325483     0.18900
N726        N  0.05870413  0.69124879  0.05161680    -0.87800
H727        H  0.10731842  0.80987555  0.13773459     0.36300
H728        H  0.10446250  0.82531000  0.09229201     0.41400
H729        H  0.06447141  0.68877306  0.02217430     0.41000
H730        H  0.06906271  0.67220924  0.06679360     0.35900
C731        C  0.88345138  0.70413826  0.10737903    -0.25800
C732        C  0.86818829  0.73105579  0.09161390    -0.13900
C733        C  0.88679751  0.75395800  0.07109218     0.36800
C734        C  0.92038112  0.75073101  0.07017505    -0.25200
C735        C  0.93552468  0.72502091  0.08872061    -0.14500
C736        C  0.91674217  0.70094775  0.10601802     0.37800
N737        N  0.93162965  0.67364418  0.12353061    -0.88700
H738        H  0.86958606  0.68581897  0.12199240     0.19000
H739        H  0.93486314  0.76939174  0.05716826     0.18900
N740        N  0.87197299  0.78132531  0.05328575    -0.87800
H741        H  0.92241345  0.65308590  0.10997015     0.36300
H742        H  0.92516329  0.67297894  0.15290027     0.41400
H743        H  0.85876949  0.77305711  0.02923669     0.41000
H744        H  0.88929976  0.79688742  0.04213516     0.35900
C745        C  0.06490395  0.78310318  0.37805019    -0.25800
C746        C  0.05007673  0.75529743  0.39217806    -0.13900
C747        C  0.06911904  0.72902781  0.40268182     0.36800
C748        C  0.10243421  0.73038468  0.39702030    -0.25200
C749        C  0.11707391  0.75733665  0.37981196    -0.14500
C750        C  0.09795667  0.78428431  0.37135158     0.37800
N751        N  0.11167243  0.81263311  0.35487627    -0.88700
H752        H  0.05030247  0.80328431  0.36930880     0.19000
H753        H  0.11657225  0.70949013  0.40413973     0.18900
N754        N  0.05448717  0.70011564  0.41628553    -0.87800
H755        H  0.10675635  0.83186411  0.37342454     0.36300
H756        H  0.10030477  0.81691476  0.32812708     0.41400
H757        H  0.06441864  0.69472272  0.44352655     0.41000
H758        H  0.06037016  0.68163040  0.39704347     0.35900
C759        C  0.91371581  0.71322331  0.38465840    -0.25800
C760        C  0.93103162  0.73969032  0.39870277    -0.13900
C761        C  0.91440671  0.76619262  0.41354001     0.36800
C762        C  0.88077052  0.76710218  0.41066152    -0.25200
C763        C  0.86355288  0.74186966  0.39281581    -0.14500
C764        C  0.88023661  0.71389445  0.38200280     0.37800
N765        N  0.86338532  0.68628185  0.36755788    -0.88700
H766        H  0.92639289  0.69270734  0.37318219     0.19000
H767        H  0.86837412  0.78842767  0.42019321     0.18900
N768        N  0.93174026  0.79311315  0.42897229    -0.87800
H769        H  0.86891149  0.66694765  0.38566935     0.36300
H770        H  0.87183370  0.68108011  0.33966314     0.41400
H771        H  0.92422194  0.79685164  0.45761225     0.41000
H772        H  0.92560306  0.81329420  0.41263176     0.35900
C773        C  0.98586073  0.70838252  0.00933133    -0.25800
C774        C  0.99294415  0.73607781  0.03098921    -0.13900
C775        C  0.00098378  0.76461097  0.01102952     0.36800
C776        C  0.00239692  0.76781406  0.47344696    -0.25200
C777        C  0.99317318  0.74139934  0.45055404    -0.14500
C778        C  0.98413158  0.71258231  0.46930700     0.37800
N779        N  0.97584568  0.68401179  0.44791522    -0.88700
H780        H  0.98010759  0.68643074  0.02456712     0.19000
H781        H  0.00889381  0.79000663  0.45920616     0.18900
N782        N  0.00674158  0.79434871  0.03118381    -0.87800
H783        H  0.99203228  0.66621463  0.45618833     0.36300
H784        H  0.97906119  0.68708064  0.41805049     0.41400
H785        H  0.00267640  0.79206746  0.06099615     0.41000
H786        H  0.98974187  0.81075118  0.02115503     0.35900
C787        C  0.26873009  0.43422408  0.33814654    -0.25800
C788        C  0.24152269  0.44649971  0.31941686    -0.13900
C789        C  0.21962119  0.42516929  0.30157084     0.36800
C790        C  0.22399545  0.39208272  0.30539835    -0.25200
C791        C  0.24974549  0.37958366  0.32728952    -0.14500
C792        C  0.27347253  0.40105383  0.34170687     0.37800
N793        N  0.30172483  0.38933922  0.36107286    -0.88700
H794        H  0.28539732  0.45066033  0.35217563     0.19000
H795        H  0.20604637  0.37617160  0.29295089     0.18900
N796        N  0.19166693  0.43644133  0.28154359    -0.87800
H797        H  0.31617571  0.40831760  0.37074982     0.36300
H798        H  0.31508283  0.37687753  0.34036454     0.41400
H799        H  0.19906514  0.45089448  0.25848128     0.41000
H800        H  0.17828111  0.45038179  0.30073715     0.35900
C801        C  0.20135056  0.61766873  0.33475629    -0.25800
C802        C  0.23085023  0.63214233  0.32625094    -0.13900
C803        C  0.25565136  0.61299647  0.31099763     0.36800
C804        C  0.25135227  0.57960185  0.30772193    -0.25200
C805        C  0.22272765  0.56502858  0.31961662    -0.14500
C806        C  0.19708523  0.58449765  0.33140457     0.37800
N807        N  0.16689467  0.57042780  0.34136150    -0.88700
H808        H  0.18165503  0.63205503  0.34520280     0.19000
H809        H  0.27133815  0.56490578  0.29887716     0.18900
N810        N  0.28591215  0.62695345  0.30125567    -0.87800
H811        H  0.14928652  0.58050383  0.32343646     0.36300
H812        H  0.16179643  0.57664989  0.37018627     0.41400
H813        H  0.29057413  0.62151608  0.27211177     0.41000
H814        H  0.30357850  0.61609150  0.31836349     0.35900
C815        C  0.26670755  0.58283680  0.15434286    -0.25800
C816        C  0.25136015  0.56432363  0.12559827    -0.13900
C817        C  0.23041511  0.57923774  0.09902976     0.36800
C818        C  0.22729974  0.61253512  0.09918103    -0.25200
C819        C  0.24488400  0.63172643  0.12546152    -0.14500
C820        C  0.26350749  0.61649180  0.15482332     0.37800
N821        N  0.28000034  0.63508403  0.18410576    -0.88700
H822        H  0.28257625  0.57126282  0.17502302     0.19000
H823        H  0.21200833  0.62337395  0.07728755     0.18900
N824        N  0.21286317  0.56051017  0.07096311    -0.87800
H825        H  0.29366107  0.62029079  0.20214527     0.36300
H826        H  0.26261239  0.64555937  0.20177826     0.41400
H827        H  0.21904408  0.56843899  0.04313522     0.41000
H828        H  0.18846704  0.56485660  0.07489148     0.35900
C829        C  0.24117250  0.43142961  0.14132357    -0.25800
C830        C  0.27085637  0.44625439  0.13511017    -0.13900
C831        C  0.29821251  0.42719611  0.13053688     0.36800
C832        C  0.29517908  0.39378193  0.12870404    -0.25200
C833        C  0.26509571  0.37877024  0.13153769    -0.14500
C834        C  0.23795050  0.39779759  0.13989644     0.37800
N835        N  0.20690675  0.38328160  0.14420151    -0.88700
H836        H  0.22008009  0.44614883  0.14446885     0.19000
H837        H  0.31639869  0.37958972  0.12360797     0.18900
N838        N  0.32902851  0.44191048  0.12621768    -0.87800
H839        H  0.18932417  0.40080295  0.14732416     0.36300
H840        H  0.20721087  0.37051508  0.17037459     0.41400
H841        H  0.33845548  0.43460999  0.09951635     0.41000
H842        H  0.34399245  0.43333469  0.14839101     0.35900
C843        C  0.27765908  0.49962948  0.21145208    -0.25800
C844        C  0.25311759  0.50646450  0.18457947    -0.13900
C845        C  0.22219107  0.51333902  0.19853971     0.36800
C846        C  0.21670213  0.51398703  0.23877491    -0.25200
C847        C  0.24120875  0.50712533  0.26566557    -0.14500
C848        C  0.27218946  0.50003058  0.25177024     0.37800
N849        N  0.29880350  0.49431110  0.27755713    -0.88700
H850        H  0.30142871  0.49435052  0.20086282     0.19000
H851        H  0.19283499  0.51890060  0.24928769     0.18900
N852        N  0.19561885  0.51814959  0.17263252    -0.87800
H853        H  0.30548984  0.47036661  0.27423570     0.36300
H854        H  0.29256694  0.49770376  0.30664491     0.41400
H855        H  0.19382621  0.49844847  0.15389141     0.41000
H856        H  0.19978970  0.53858022  0.15602887     0.35900
N857        N  0.25501779  0.50506241  0.64280446    -0.03000
C858        C  0.26446545  0.47962671  0.62107434    -0.00400
C859        C  0.26979111  0.48864276  0.58298725    -0.23300
C860        C  0.26372237  0.52075267  0.58101670    -0.23500
C861        C  0.25473619  0.53035670  0.61793287    -0.00500
H862        H  0.27677120  0.47332916  0.55904250     0.13300
H863        H  0.26579836  0.53563860  0.55538140     0.13400
N864        N  0.23780954  0.50514222  0.80784640    -0.03000
C865        C  0.22821094  0.53014396  0.83023330    -0.00400
C866        C  0.22142900  0.51996126  0.86757698    -0.23300
C867        C  0.22672055  0.48762011  0.86830893    -0.23500
C868        C  0.23649131  0.47908237  0.83141286    -0.00500
H869        H  0.21414848  0.53466836  0.89193962     0.13300
H870        H  0.22368513  0.47190621  0.89304698     0.13400
N871        N  0.99520170  0.73833661  0.90632522    -0.03000
C872        C  0.02007189  0.74487766  0.88218668    -0.00400
C873        C  0.01006506  0.74448456  0.84371877    -0.23300
C874        C  0.97801774  0.73789828  0.84378512    -0.23500
C875        C  0.96934950  0.73458590  0.88230846    -0.00500
H876        H  0.02462760  0.74874358  0.81828829     0.13300
H877        H  0.96239741  0.73666326  0.81848205     0.13400
N878        N  0.99391389  0.73429672  0.57515956    -0.03000
C879        C  0.96947555  0.72477814  0.59852473    -0.00400
C880        C  0.97968145  0.72331325  0.63693051    -0.23300
C881        C  0.01139160  0.73170495  0.63742456    -0.23500
C882        C  0.01969333  0.73798157  0.59933551    -0.00500
H883        H  0.96526507  0.71789691  0.66215852     0.13300
H884        H  0.02685462  0.73301627  0.66286221     0.13400
Zn885      Zn  0.26756395  0.73116121  0.81626917     1.49700
Zn886      Zn  0.21284961  0.78612988  0.83025487     1.49400
Zn887      Zn  0.22000544  0.72356965  0.88433127     1.49100
Zn888      Zn  0.27462261  0.77930829  0.88507191     1.49500
O889        O  0.24332921  0.75541936  0.85398653    -1.83600
O890        O  0.25386908  0.74710992  0.76625355    -0.74200
O891        O  0.16736211  0.77613544  0.84839928    -0.74100
O892        O  0.22262318  0.67853204  0.86192913    -0.73600
O893        O  0.21590725  0.78420177  0.77036924    -0.74300
O894        O  0.25832397  0.68369289  0.81511740    -0.73900
O895        O  0.17344457  0.73436470  0.88744362    -0.74400
O896        O  0.27174679  0.76468041  0.93987771    -0.73800
O897        O  0.22244121  0.83183332  0.84889849    -0.74600
O898        O  0.23567793  0.72504749  0.93942964    -0.74000
O899        O  0.26518141  0.82654448  0.88683568    -0.74400
O900        O  0.31992741  0.77396466  0.86594032    -0.74300
O901        O  0.31521873  0.73831608  0.81848273    -0.74100
C902        C  0.23466055  0.76662844  0.75043293     0.77700
C903        C  0.15573746  0.75555964  0.87194173     0.78100
C904        C  0.23908614  0.66643484  0.83450390     0.77100
C905        C  0.25501441  0.74373395  0.95733765     0.77500
C906        C  0.24362762  0.84403468  0.87164378     0.78600
C907        C  0.33246472  0.75685740  0.83940128     0.77700
Zn908      Zn  0.22039220  0.72421095  0.57465567     1.49700
Zn909      Zn  0.27047421  0.73262506  0.64267335     1.49400
Zn910      Zn  0.27610617  0.77895908  0.57175952     1.49100
Zn911      Zn  0.21559330  0.78650660  0.62790873     1.49500
O912        O  0.24546633  0.75579160  0.60408280    -1.83600
O913        O  0.22756259  0.67953884  0.59521462    -0.74200
O914        O  0.31784462  0.74233659  0.64216305    -0.74100
O915        O  0.27187385  0.76298520  0.51706966    -0.73600
O916        O  0.26412633  0.68468351  0.64179943    -0.74300
O917        O  0.23267947  0.72644837  0.51844789    -0.73900
O918        O  0.32184538  0.77497024  0.59176345    -0.74400
O919        O  0.22467628  0.83111799  0.60831631    -0.73800
O920        O  0.25488280  0.74719574  0.69283273    -0.74600
O921        O  0.26619652  0.82631815  0.56905825    -0.74000
O922        O  0.21828035  0.78547729  0.68733904    -0.74400
O923        O  0.16974116  0.77644698  0.61282804    -0.74300
O924        O  0.17263742  0.73280777  0.57641365    -0.74100
C925        C  0.24532770  0.66719965  0.62152820     0.77700
C926        C  0.33466810  0.76007016  0.62026314     0.78100
C927        C  0.25290406  0.74340371  0.49999825     0.77100
C928        C  0.24485367  0.84347894  0.58498144     0.77500
C929        C  0.23558250  0.76695219  0.70796178     0.78600
C930        C  0.15612268  0.75461686  0.59258319     0.77700
N931        N  0.49565280  0.76716906  0.65528506    -0.03000
C932        C  0.47181064  0.77404405  0.62926504    -0.00400
C933        C  0.48437023  0.77866905  0.59248926    -0.23300
C934        C  0.51671913  0.77466419  0.59560889    -0.23500
C935        C  0.52302203  0.76751568  0.63406114    -0.00500
H936        H  0.47121012  0.78323912  0.56579080     0.13300
H937        H  0.53384726  0.77604151  0.57216814     0.13400
N938        N  0.49440601  0.74416097  0.81967325    -0.03000
C939        C  0.51959504  0.73644616  0.84316287    -0.00400
C940        C  0.50960297  0.73252607  0.88117420    -0.23300
C941        C  0.47731770  0.73808051  0.88135102    -0.23500
C942        C  0.46861024  0.74520444  0.84346763    -0.00500
H943        H  0.52444999  0.72709047  0.90628124     0.13300
H944        H  0.46179709  0.73717444  0.90643253     0.13400
Zn945      Zn  0.77037635  0.76812428  0.90118525     1.49700
Zn946      Zn  0.77485539  0.72195742  0.83083145     1.49400
Zn947      Zn  0.71460955  0.71467262  0.88589107     1.49100
Zn948      Zn  0.72103164  0.77794254  0.83263839     1.49500
O949        O  0.74474723  0.74564824  0.86252251    -1.83600
O950        O  0.81715963  0.75641669  0.90182470    -0.74200
O951        O  0.76396611  0.67539289  0.82739839    -0.74100
O952        O  0.71663569  0.71649347  0.94537975    -0.73600
O953        O  0.82004481  0.72417614  0.85085008    -0.74300
O954        O  0.75380259  0.75465310  0.95137858    -0.73900
O955        O  0.72324415  0.66913557  0.86754695    -0.74400
O956        O  0.67310191  0.76813951  0.83178313    -0.73800
O957        O  0.77289396  0.73762843  0.77688680    -0.74600
O958        O  0.66973763  0.72440950  0.86803503    -0.74000
O959        O  0.73533522  0.77545187  0.77663241    -0.74400
O960        O  0.72865007  0.82320004  0.85397736    -0.74300
O961        O  0.76689402  0.81615180  0.89849501    -0.74100
C962        C  0.83326395  0.73820500  0.87974963     0.77700
C963        C  0.74335081  0.65752908  0.84365103     0.78100
C964        C  0.73421463  0.73489900  0.96623657     0.77100
C965        C  0.65657411  0.74555627  0.84659520     0.77500
C966        C  0.75543215  0.75772556  0.75908384     0.78600
C967        C  0.74829840  0.83438058  0.87932503     0.77700
Zn968      Zn  0.77432730  0.71795400  0.64604253     1.49700
Zn969      Zn  0.72389300  0.77712565  0.64192248     1.49400
Zn970      Zn  0.77100271  0.76269272  0.57513067     1.49100
Zn971      Zn  0.71215493  0.71329459  0.58998352     1.49500
O972        O  0.74481398  0.74228649  0.61356655    -1.83600
O973        O  0.77206094  0.73520068  0.70016879    -0.74200
O974        O  0.73411404  0.82158893  0.62069145    -0.74100
O975        O  0.81656794  0.74887523  0.57428933    -0.73600
O976        O  0.73714521  0.77545820  0.69787822    -0.74300
O977        O  0.82024517  0.71847627  0.62662135    -0.73900
O978        O  0.77075293  0.81030422  0.57683423    -0.74400
O979        O  0.71260789  0.71674059  0.52981196    -0.73800
O980        O  0.67623156  0.77044981  0.64267909    -0.74600
O981        O  0.75296125  0.75142394  0.52542375    -0.74000
O982        O  0.66781489  0.72527773  0.60982367    -0.74400
O983        O  0.72039215  0.66709528  0.60704240    -0.74300
O984        O  0.76134029  0.67155645  0.64833199    -0.74100
C985        C  0.75574193  0.75698304  0.71670037     0.77700
C986        C  0.75432103  0.83068498  0.59529508     0.78100
C987        C  0.83304490  0.73155022  0.59702365     0.77100
C988        C  0.73135109  0.73429308  0.50971808     0.77500
C989        C  0.65737074  0.74859810  0.63016967     0.78600
C990        C  0.74030238  0.65449512  0.63093074     0.77700
N991        N  0.75013895  0.49230542  0.65401930    -0.03000
C992        C  0.75379446  0.46629905  0.63049113    -0.00400
C993        C  0.75056274  0.47481123  0.59181879    -0.23300
C994        C  0.74478992  0.50708827  0.59119237    -0.23500
C995        C  0.74447194  0.51727449  0.62954066    -0.00500
H996        H  0.75116013  0.45895423  0.56682571     0.13300
H997        H  0.74092418  0.52161837  0.56552817     0.13400
N998        N  0.76266500  0.49619446  0.82028299    -0.03000
C999        C  0.75898843  0.52209804  0.84388280    -0.00400
C1000       C  0.76383429  0.51389493  0.88241185    -0.23300
C1001       C  0.77052831  0.48181238  0.88287806    -0.23500
C1002       C  0.76952808  0.47146460  0.84458824    -0.00500
H1003       H  0.76239081  0.52959396  0.90749048     0.20500
H1004       H  0.77440798  0.46725151  0.90851315     0.13400
N1005       N  0.74963388  0.99591832  0.90832486    -0.03000
C1006       C  0.75221528  0.97131394  0.88248062    -0.00400
C1007       C  0.74860269  0.98217509  0.84475025    -0.23300
C1008       C  0.74357435  0.01451671  0.84716343    -0.23500
C1009       C  0.74420040  0.02236404  0.88627936    -0.00500
H1010       H  0.74907448  0.96794249  0.81835134     0.13300
H1011       H  0.74033551  0.03077693  0.82295965     0.13400
N1012       N  0.77496047  0.99154311  0.56833458    -0.03000
C1013       C  0.78342586  0.96480262  0.58825324    -0.00400
C1014       C  0.79847387  0.97286126  0.62293259    -0.23300
C1015       C  0.79918444  0.00566486  0.62471348    -0.23500
C1016       C  0.78465400  0.01654612  0.59098393    -0.00500
H1017       H  0.80594946  0.95661272  0.64574220     0.13300
H1018       H  0.80760669  0.02005824  0.64904159     0.13400
Zn1019     Zn  0.78112812  0.21408436  0.84151351     1.49700
Zn1020     Zn  0.71901429  0.22426615  0.89344453     1.49400
Zn1021     Zn  0.77623463  0.27706015  0.89462877     1.49100
Zn1022     Zn  0.73052871  0.27077120  0.82191189     1.49500
O1023       O  0.75180792  0.24636251  0.86289650    -1.83600
O1024       O  0.76998084  0.16938500  0.86024394    -0.74200
O1025       O  0.72379829  0.23699402  0.94969734    -0.74100
O1026       O  0.82310819  0.26586481  0.89700456    -0.73600
O1027       O  0.72535896  0.17617725  0.89376502    -0.74300
O1028       O  0.82616409  0.22198679  0.86075039    -0.73900
O1029       O  0.76207239  0.27449744  0.95001698    -0.74400
O1030       O  0.74051462  0.31821322  0.82305023    -0.73800
O1031       O  0.67420020  0.23369140  0.87336383    -0.74600
O1032       O  0.77302081  0.32234375  0.87420782    -0.74000
O1033       O  0.68269219  0.26551745  0.82285397    -0.74400
O1034       O  0.74563191  0.25471862  0.77125291    -0.74300
O1035       O  0.78062604  0.21545799  0.78212661    -0.74100
C1036       C  0.74737798  0.15812324  0.88087886     0.77700
C1037       C  0.74236522  0.25642117  0.96759727     0.78100
C1038       C  0.83927148  0.24296083  0.88275840     0.77100
C1039       C  0.75822660  0.33501323  0.84555099     0.77500
C1040       C  0.66364186  0.25018847  0.84482775     0.78600
C1041       C  0.76492555  0.23359885  0.75914687     0.77700
Zn1042     Zn  0.78942940  0.26489095  0.64426253     1.49700
Zn1043     Zn  0.72619362  0.27160930  0.59209241     1.49400
Zn1044     Zn  0.78102979  0.21927198  0.57102254     1.49100
Zn1045     Zn  0.73619918  0.20840693  0.64272934     1.49500
O1046       O  0.75811434  0.24125510  0.61249813    -1.83600
O1047       O  0.78045910  0.31249879  0.64529664    -0.74200
O1048       O  0.72638704  0.27115270  0.53268397    -0.74100
O1049       O  0.82812854  0.22901090  0.57127391    -0.73600
O1050       O  0.73560614  0.31683401  0.61071654    -0.74300
O1051       O  0.83409962  0.26010907  0.62338728    -0.73900
O1052       O  0.76465223  0.23534348  0.52094520    -0.74400
O1053       O  0.74665434  0.16378215  0.62451059    -0.73800
O1054       O  0.68167914  0.26042491  0.61096099    -0.74600
O1055       O  0.77613205  0.17103966  0.57200997    -0.74000
O1056       O  0.68818527  0.21386847  0.64106713    -0.74400
O1057       O  0.74826121  0.21312199  0.69890646    -0.74300
O1058       O  0.78652102  0.25062799  0.69999245    -0.74100
C1059       C  0.75795393  0.32945657  0.63122105     0.77700
C1060       C  0.74387249  0.25529756  0.50933319     0.78100
C1061       C  0.84569767  0.24579595  0.59388365     0.77100
C1062       C  0.76214303  0.15244673  0.59584133     0.77500
C1063       C  0.67027055  0.23650978  0.62929796     0.78600
C1064       C  0.76797470  0.23106173  0.71719567     0.77700
N1065       N  0.50815683  0.24045814  0.64686785    -0.03000
C1066       C  0.48412617  0.24332983  0.62004863    -0.00400
C1067       C  0.49498578  0.23589255  0.58319152    -0.23300
C1068       C  0.52673045  0.22852768  0.58705065    -0.23500
C1069       C  0.53430185  0.23157243  0.62613140    -0.00500
H1070       H  0.48123302  0.23590722  0.55631080     0.13300
H1071       H  0.54295721  0.22274139  0.56365628     0.13400
N1072       N  0.50288488  0.26890715  0.81032063    -0.03000
C1073       C  0.52835353  0.27074745  0.83527037    -0.00400
C1074       C  0.51877381  0.28012710  0.87193415    -0.23300
C1075       C  0.48631732  0.28388206  0.87005900    -0.23500
C1076       C  0.47697271  0.27647283  0.83234673    -0.00500
H1077       H  0.53377037  0.28292950  0.89761847     0.13300
H1078       H  0.47087574  0.28991928  0.89414497     0.13400
N1079       N  0.26052335  0.00578687  0.90055487    -0.03000
C1080       C  0.27067821  0.03088186  0.87859319    -0.00400
C1081       C  0.27523359  0.02134014  0.84047311    -0.23300
C1082       C  0.26762587  0.98945971  0.83860535    -0.23500
C1083       C  0.25860106  0.98037200  0.87563606    -0.00500
H1084       H  0.28192898  0.03637522  0.81619462     0.13300
H1085       H  0.26824417  0.97448052  0.81282115     0.13400
N1086       N  0.25341581  0.00527131  0.56497836    -0.03000
C1087       C  0.24638501  0.97996017  0.58821817    -0.00400
C1088       C  0.24709788  0.98891295  0.62701127    -0.23300
C1089       C  0.25482288  0.02076626  0.62798510    -0.23500
C1090       C  0.25868959  0.03027767  0.58976349    -0.00500
H1091       H  0.24290406  0.97371458  0.65197147     0.13300
H1092       H  0.25675041  0.03564874  0.65379715     0.13400
N1093       N  0.00223587  0.24562208  0.90023579    -0.03000
C1094       C  0.97494674  0.24212940  0.87886461    -0.00400
C1095       C  0.98172827  0.24146347  0.83956633    -0.23300
C1096       C  0.01426661  0.24514332  0.83645138    -0.23500
C1097       C  0.02626253  0.24792671  0.87399277    -0.00500
H1098       H  0.96469807  0.23926240  0.81574287     0.13300
H1099       H  0.02774984  0.24612420  0.80968313     0.13400
N1100       N  0.00680837  0.25451045  0.56579370    -0.03000
C1101       C  0.98132095  0.25597132  0.59004953    -0.00400
C1102       C  0.99132108  0.25900885  0.62839053    -0.23300
C1103       C  0.02403988  0.25986221  0.62800794    -0.23500
C1104       C  0.03297853  0.25707273  0.58950173    -0.00500
H1105       H  0.97629368  0.26126716  0.65379333     0.13300
H1106       H  0.03973203  0.26274397  0.65305902     0.13400
Zn1107     Zn  0.22996166  0.23065411  0.89311635     1.49700
Zn1108     Zn  0.22071568  0.27726576  0.82336806     1.49400
Zn1109     Zn  0.28153642  0.28793471  0.87915347     1.49100
Zn1110     Zn  0.27931764  0.22536631  0.82564008     1.49500
O1111       O  0.25302387  0.25553127  0.85505616    -1.83600
O1112       O  0.18205289  0.23638611  0.89184666    -0.74200
O1113       O  0.22906177  0.32503179  0.82080732    -0.74100
O1114       O  0.28086884  0.28546350  0.93823696    -0.73600
O1115       O  0.17520702  0.27026243  0.84312460    -0.74300
O1116       O  0.24500290  0.24612773  0.94350878    -0.73900
O1117       O  0.26970947  0.33226841  0.86177532    -0.74400
O1118       O  0.32578786  0.23916712  0.82381946    -0.73800
O1119       O  0.22509046  0.26191172  0.76857755    -0.74600
O1120       O  0.32684241  0.28265241  0.86094073    -0.74000
O1121       O  0.26481475  0.22627314  0.77015493    -0.74400
O1122       O  0.27734709  0.18000013  0.84709097    -0.74300
O1123       O  0.23987724  0.18351036  0.89217883    -0.74100
C1124       C  0.16372195  0.25331869  0.87064195     0.77700
C1125       C  0.24943229  0.34338534  0.83752646     0.78100
C1126       C  0.26415262  0.26639448  0.95869105     0.77100
C1127       C  0.34086607  0.26286121  0.83866127     0.77500
C1128       C  0.24424196  0.24285004  0.75164773     0.78600
C1129       C  0.26001146  0.16706645  0.87318136     0.77700
Zn1130     Zn  0.23368197  0.23138933  0.56816354     1.49700
Zn1131     Zn  0.28844346  0.28584569  0.58132178     1.49400
Zn1132     Zn  0.22741838  0.27960789  0.63675598     1.49100
Zn1133     Zn  0.28219558  0.22479789  0.63723021     1.49500
O1134       O  0.25832620  0.25566223  0.60599921    -1.83600
O1135       O  0.24642980  0.24698148  0.51731582    -0.74200
O1136       O  0.28074830  0.33076710  0.60135320    -0.74100
O1137       O  0.18234726  0.27635452  0.61542730    -0.73600
O1138       O  0.28353991  0.28524865  0.52177931    -0.74300
O1139       O  0.18620375  0.23828497  0.57071779    -0.73900
O1140       O  0.23879415  0.32638534  0.64012328    -0.74400
O1141       O  0.26682757  0.22673643  0.69226432    -0.73800
O1142       O  0.33428979  0.27505940  0.59622433    -0.74600
O1143       O  0.22812167  0.26337023  0.69120232    -0.74000
O1144       O  0.32946192  0.23504619  0.63803663    -0.74400
O1145       O  0.27760158  0.17949316  0.61656808    -0.74300
O1146       O  0.24243199  0.18417628  0.56849138    -0.74100
C1147       C  0.26500697  0.26721475  0.50162895     0.77700
C1148       C  0.26057279  0.34327535  0.62451652     0.78100
C1149       C  0.16953192  0.25820536  0.58976772     0.77100
C1150       C  0.24564414  0.24340855  0.70930277     0.77500
C1151       C  0.34684382  0.25501799  0.61977682     0.78600
C1152       C  0.26094588  0.16700915  0.58911303     0.77700
C1153       C  0.08351307  0.28700177  0.58705784    -0.25800
C1154       C  0.06693543  0.25854272  0.57815285    -0.13900
C1155       C  0.08452596  0.23060992  0.56926618     0.36800
C1156       C  0.11810080  0.23180023  0.57058097    -0.25200
C1157       C  0.13452989  0.25963616  0.58257774    -0.14500
C1158       C  0.11699025  0.28778728  0.58951129     0.37800
N1159       N  0.13298219  0.31710464  0.59974585    -0.88700
H1160       H  0.07025389  0.30833903  0.59473593     0.19000
H1161       H  0.13131819  0.21004124  0.56487302     0.18900
N1162       N  0.06941419  0.20024245  0.56133685    -0.87800
H1163       H  0.12455914  0.32460324  0.62688314     0.36300
H1164       H  0.12664288  0.33441548  0.57916512     0.41400
H1165       H  0.04458512  0.20176379  0.56283214     0.41000
H1166       H  0.07636894  0.18442872  0.58336876     0.35900
C1167       C  0.07853576  0.22834661  0.89899975    -0.25800
C1168       C  0.06071360  0.25318515  0.88230286    -0.13900
C1169       C  0.07695826  0.27975292  0.86615159     0.36800
C1170       C  0.11039853  0.27931020  0.86354964    -0.25200
C1171       C  0.12847083  0.25355027  0.87787900    -0.14500
C1172       C  0.11230652  0.22840426  0.89756226     0.37800
N1173       N  0.12988913  0.20221562  0.91421872    -0.88700
H1174       H  0.06600235  0.20802437  0.91135124     0.19000
H1175       H  0.12231520  0.29932563  0.84970038     0.18900
N1176       N  0.06026598  0.30721211  0.85113026    -0.87800
H1177       H  0.11423712  0.18479561  0.92502590     0.36300
H1178       H  0.14246794  0.21115657  0.93838793     0.41400
H1179       H  0.03573549  0.30579345  0.85655879     0.41000
H1180       H  0.06840305  0.32721792  0.86675781     0.35900
C1181       C  0.01288474  0.27614230  0.96016371    -0.25800
C1182       C  0.00496595  0.24696899  0.94205827    -0.13900
C1183       C  0.99882721  0.21972966  0.96534960     0.36800
C1184       C  0.00075597  0.22242739  0.50576960    -0.25200
C1185       C  0.00607323  0.25221055  0.52374645    -0.14500
C1186       C  0.01029953  0.27949624  0.50014533     0.37800
N1187       N  0.01414411  0.31067603  0.51698924    -0.88700
H1188       H  0.01740020  0.29705876  0.94239109     0.19000
H1189       H  0.99725512  0.20139791  0.52363983     0.18900
N1190       N  0.99135053  0.18888208  0.94879952    -0.87800
H1191       H  0.03449661  0.31060496  0.53486045     0.36300
H1192       H  0.99425103  0.31527142  0.53436255     0.41400
H1193       H  0.99242235  0.18926398  0.91846195     0.41000
H1194       H  0.00916625  0.17299841  0.95790259     0.35900
C1195       C  0.24043876  0.08090236  0.55909473    -0.25800
C1196       C  0.26408311  0.06421662  0.57967548    -0.13900
C1197       C  0.28885587  0.08136204  0.59847165     0.36800
C1198       C  0.28826146  0.11484330  0.59922977    -0.25200
C1199       C  0.26305477  0.13187889  0.58172610    -0.14500
C1200       C  0.23963245  0.11465373  0.55972117     0.37800
N1201       N  0.21408088  0.13113597  0.54004643    -0.88700
H1202       H  0.22129032  0.06758305  0.54486949     0.19000
H1203       H  0.30701560  0.12744843  0.61511502     0.18900
N1204       N  0.31397124  0.06464186  0.61840098    -0.87800
H1205       H  0.19786492  0.11479636  0.52762057     0.36300
H1206       H  0.22415966  0.14364877  0.51680869     0.41400
H1207       H  0.31380641  0.07161161  0.64770063     0.41000
H1208       H  0.33580037  0.07186850  0.60651596     0.35900
C1209       C  0.24121845  0.07979847  0.89765255    -0.25800
C1210       C  0.27054713  0.06524636  0.88932929    -0.13900
C1211       C  0.29721592  0.08456587  0.88026982     0.36800
C1212       C  0.29342006  0.11783224  0.87634204    -0.25200
C1213       C  0.26346600  0.13229467  0.88154709    -0.14500
C1214       C  0.23727429  0.11314691  0.89362144     0.37800
N1215       N  0.20631788  0.12721124  0.89939706    -0.88700
H1216       H  0.22062815  0.06483124  0.90387223     0.19000
H1217       H  0.31378494  0.13243819  0.86815032     0.18900
N1218       N  0.32771639  0.06995308  0.87319437    -0.87800
H1219       H  0.18982101  0.10991980  0.90847961     0.36300
H1220       H  0.19816111  0.13548111  0.87235810     0.41400
H1221       H  0.33515907  0.05917586  0.89917854     0.41000
H1222       H  0.34491053  0.08734684  0.86655920     0.35900
C1223       C  0.28409006  0.00955618  0.96616411    -0.25800
C1224       C  0.25681264  0.00561981  0.94237314    -0.13900
C1225       C  0.22660248  0.00159311  0.96008531     0.36800
C1226       C  0.22567641  0.99564409  0.50226278    -0.25200
C1227       C  0.25315894  0.00569090  0.52284681    -0.14500
C1228       C  0.28002346  0.01608562  0.50186831     0.37800
N1229       N  0.30856549  0.02580215  0.52212018    -0.88700
H1230       H  0.30726766  0.01247608  0.95264762     0.19000
H1231       H  0.20477585  0.98804174  0.51834230     0.18900
N1232       N  0.19754393  0.99827264  0.93766340    -0.87800
H1233       H  0.31390667  0.04932088  0.51395825     0.36300
H1234       H  0.32727480  0.01116072  0.51286836     0.41400
H1235       H  0.20190516  0.99974941  0.90782191     0.41000
H1236       H  0.18296608  0.01774654  0.94446749     0.35900
C1237       C  0.42348015  0.30059342  0.82964797    -0.25800
C1238       C  0.44256349  0.27379101  0.82192538    -0.13900
C1239       C  0.42747773  0.24378174  0.81575627     0.36800
C1240       C  0.39416875  0.24099963  0.81952568    -0.25200
C1241       C  0.37540347  0.26745433  0.83009626    -0.14500
C1242       C  0.39024009  0.29779469  0.83357307     0.37800
N1243       N  0.37179804  0.32582767  0.84175530    -0.88700
H1244       H  0.43474788  0.32367107  0.83494903     0.19000
H1245       H  0.38315959  0.21759166  0.81613966     0.18900
N1246       N  0.44536100  0.21534489  0.80811500    -0.87800
H1247       H  0.37551946  0.34228183  0.81931889     0.36300
H1248       H  0.38045604  0.33599978  0.86769176     0.41400
H1249       H  0.46273249  0.21252735  0.82994683     0.41000
H1250       H  0.45658460  0.21798604  0.78130422     0.35900
C1251       C  0.43177606  0.23111393  0.65092033    -0.25800
C1252       C  0.45015611  0.25117180  0.62726959    -0.13900
C1253       C  0.43478531  0.27463906  0.60441501     0.36800
C1254       C  0.40120821  0.27618473  0.60366743    -0.25200
C1255       C  0.38239750  0.25465827  0.62520888    -0.14500
C1256       C  0.39812465  0.23256307  0.65010086     0.37800
N1257       N  0.38020857  0.21080494  0.67373268    -0.88700
H1258       H  0.44347018  0.21288153  0.66828835     0.19000
H1259       H  0.38974779  0.29370934  0.58506030     0.18900
N1260       N  0.45348551  0.29609055  0.58095262    -0.87800
H1261       H  0.38702959  0.21446292  0.70280840     0.36300
H1262       H  0.38648649  0.18745462  0.66592373     0.41400
H1263       H  0.46733616  0.31017906  0.59981206     0.41000
H1264       H  0.43860295  0.31180762  0.56548770     0.35900
C1265       C  0.49522554  0.27698730  0.70102634    -0.25800
C1266       C  0.50669725  0.24730039  0.68819933    -0.13900
C1267       C  0.51686371  0.22475031  0.71613950     0.36800
C1268       C  0.51575174  0.23231298  0.75613791    -0.25200
C1269       C  0.50372180  0.26180602  0.76901908    -0.14500
C1270       C  0.49387173  0.28454236  0.74085758     0.37800
N1271       N  0.48407123  0.31611194  0.75167846    -0.88700
H1272       H  0.48785636  0.29467424  0.67978153     0.19000
H1273       H  0.52356745  0.21480122  0.77736614     0.18900
N1274       N  0.52745335  0.19378817  0.70401476    -0.87800
H1275       H  0.46303817  0.31456685  0.76763267     0.36300
H1276       H  0.50193377  0.32643105  0.76923965     0.41400
H1277       H  0.55072580  0.19053254  0.71467673     0.41000
H1278       H  0.51269327  0.17661201  0.71694838     0.35900
C1279       C  0.61981063  0.20491023  0.63292790    -0.25800
C1280       C  0.63536343  0.23462764  0.63647121    -0.13900
C1281       C  0.61717187  0.26215281  0.64515048     0.36800
C1282       C  0.58357141  0.25972089  0.64699050    -0.25200
C1283       C  0.56793168  0.23049940  0.63969082    -0.14500
C1284       C  0.58636815  0.20251732  0.63402802     0.37800
N1285       N  0.57192867  0.17164586  0.62705188    -0.88700
H1286       H  0.63360709  0.18357221  0.62689086     0.19000
H1287       H  0.56942816  0.28116637  0.65090267     0.18900
N1288       N  0.63278057  0.29259377  0.65082057    -0.87800
H1289       H  0.57974215  0.15635898  0.64919930     0.36300
H1290       H  0.54704181  0.17254449  0.62939531     0.41400
H1291       H  0.64720381  0.29082608  0.67579013     0.41000
H1292       H  0.61598078  0.31043991  0.65647418     0.35900
C1293       C  0.89507042  0.27861786  0.59551141    -0.25800
C1294       C  0.88022045  0.24951559  0.58563249    -0.13900
C1295       C  0.89870860  0.22465742  0.56926846     0.36800
C1296       C  0.93212407  0.22864076  0.56639991    -0.25200
C1297       C  0.94710343  0.25695447  0.57919465    -0.14500
C1298       C  0.92808515  0.28285473  0.59196231     0.37800
N1299       N  0.94164088  0.31322882  0.60351440    -0.88700
H1300       H  0.88094535  0.29820034  0.60687577     0.19000
H1301       H  0.94667412  0.20861559  0.55736428     0.18900
N1302       N  0.88391212  0.19487075  0.55786285    -0.87800
H1303       H  0.93135657  0.33076983  0.58578453     0.36300
H1304       H  0.96615946  0.31425814  0.59801284     0.41400
H1305       H  0.87525430  0.18392121  0.58307319     0.41000
H1306       H  0.90084656  0.17931280  0.54611842     0.35900
C1307       C  0.57365626  0.23488361  0.84807707    -0.25800
C1308       C  0.56182899  0.26153087  0.82788412    -0.13900
C1309       C  0.58360024  0.28300533  0.81063106     0.36800
C1310       C  0.61659541  0.27797196  0.81488832    -0.25200
C1311       C  0.62856789  0.25236430  0.83726869    -0.14500
C1312       C  0.60665162  0.23018740  0.85313681     0.37800
N1313       N  0.61762028  0.20326220  0.87520923    -0.88700
H1314       H  0.55707489  0.21865322  0.86217262     0.19000
H1315       H  0.63290939  0.29527605  0.80232627     0.18900
N1316       N  0.57291607  0.31109462  0.79065941    -0.87800
H1317       H  0.60878568  0.18243564  0.86187966     0.36300
H1318       H  0.60782940  0.20474597  0.90310513     0.41400
H1319       H  0.55915106  0.32475686  0.80976091     0.41000
H1320       H  0.55843399  0.30389114  0.76723645     0.35900
C1321       C  0.89132202  0.26929676  0.90009717    -0.25800
C1322       C  0.87417108  0.24115757  0.89098069    -0.13900
C1323       C  0.89108194  0.21213339  0.88718165     0.36800
C1324       C  0.92464540  0.21238220  0.88820414    -0.25200
C1325       C  0.94176484  0.24104384  0.89326121    -0.14500
C1326       C  0.92485998  0.26957188  0.90081464     0.37800
N1327       N  0.94106213  0.29953286  0.90657491    -0.88700
H1328       H  0.87875682  0.29170822  0.90397778     0.19000
H1329       H  0.93739750  0.19039759  0.88218516     0.18900
N1330       N  0.87435517  0.18246546  0.88116569    -0.87800
H1331       H  0.95544407  0.30411764  0.88241896     0.36300
H1332       H  0.95572182  0.29756537  0.93121623     0.41400
H1333       H  0.88084007  0.16685662  0.90361715     0.41000
H1334       H  0.88199779  0.17254621  0.85483507     0.35900
C1335       C  0.78653113  0.10429312  0.56373661    -0.25800
C1336       C  0.76469942  0.11705561  0.59080107    -0.13900
C1337       C  0.74686185  0.09560160  0.61407418     0.36800
C1338       C  0.75262247  0.06267305  0.61176985    -0.25200
C1339       C  0.77539965  0.05031793  0.58620681    -0.14500
C1340       C  0.79203531  0.07110814  0.56144754     0.37800
N1341       N  0.81547500  0.05873358  0.53526597    -0.88700
H1342       H  0.80032104  0.12011735  0.54529670     0.19000
H1343       H  0.73979322  0.04661164  0.63097217     0.18900
N1344       N  0.72314958  0.10698203  0.64059871    -0.87800
H1345       H  0.83745471  0.06962013  0.54190984     0.36300
H1346       H  0.80889799  0.06538385  0.50696448     0.41400
H1347       H  0.72948440  0.09949755  0.66866835     0.41000
H1348       H  0.70125713  0.09624574  0.63316404     0.35900
C1349       C  0.71665714  0.10741080  0.88935392    -0.25800
C1350       C  0.74634788  0.12333349  0.88991249    -0.13900
C1351       C  0.77425976  0.10556012  0.89902745     0.36800
C1352       C  0.77213297  0.07231128  0.90411886    -0.25200
C1353       C  0.74290854  0.05608984  0.89928281    -0.14500
C1354       C  0.71459964  0.07405369  0.89363129     0.37800
N1355       N  0.68366579  0.05903326  0.88975066    -0.88700
H1356       H  0.69496440  0.12074106  0.88341153     0.19000
H1357       H  0.79394753  0.05872090  0.90821794     0.18900
N1358       N  0.80514561  0.12040848  0.90267111    -0.87800
H1359       H  0.66927292  0.06798255  0.91203006     0.36300
H1360       H  0.68506836  0.03438030  0.89436190     0.41400
H1361       H  0.80375804  0.13891740  0.92316834     0.41000
H1362       H  0.81160617  0.12997908  0.87575749     0.35900
C1363       C  0.78145050  0.98111529  0.49840196    -0.25800
C1364       C  0.76267611  0.99299548  0.52889738    -0.13900
C1365       C  0.73314193  0.00757967  0.52006513     0.36800
C1366       C  0.72666447  0.00389089  0.97357449    -0.25200
C1367       C  0.75239366  0.99434427  0.95025984    -0.14500
C1368       C  0.78079360  0.98347793  0.96832920     0.37800
N1369       N  0.80779771  0.97490538  0.94500645    -0.88700
H1370       H  0.80442605  0.97054292  0.50529590     0.19000
H1371       H  0.70473313  0.01205605  0.95990390     0.18900
N1372       N  0.71350924  0.01966185  0.55088567    -0.87800
H1373       H  0.82687005  0.96744060  0.96263685     0.36300
H1374       H  0.81548403  0.99557498  0.93064884     0.41400
H1375       H  0.70614665  0.00014489  0.56759943     0.41000
H1376       H  0.69274301  0.03008576  0.53952623     0.35900
C1377       C  0.74188641  0.42255995  0.82079046    -0.25800
C1378       C  0.77020464  0.43703121  0.83448334    -0.13900
C1379       C  0.79589369  0.41752329  0.84696308     0.36800
C1380       C  0.79148730  0.38434838  0.84905608    -0.25200
C1381       C  0.76227503  0.36987628  0.83845029    -0.14500
C1382       C  0.73752709  0.38910934  0.82275965     0.37800
N1383       N  0.70747835  0.37499138  0.81104819    -0.88700
H1384       H  0.72217450  0.43758521  0.81150807     0.19000
H1385       H  0.81101560  0.36977380  0.85988795     0.18900
N1386       N  0.82639216  0.43059614  0.85890343    -0.87800
H1387       H  0.69205552  0.39244216  0.79991743     0.36300
H1388       H  0.69660141  0.36588995  0.83604004     0.41400
H1389       H  0.82736902  0.45532651  0.85476157     0.41000
H1390       H  0.84371477  0.42100036  0.84045761     0.35900
C1391       C  0.78421424  0.41657616  0.64297310    -0.25800
C1392       C  0.75459277  0.43228539  0.64238527    -0.13900
C1393       C  0.72608521  0.41379045  0.64240876     0.36800
C1394       C  0.72794517  0.38032337  0.64009087    -0.25200
C1395       C  0.75753260  0.36458725  0.63845674    -0.14500
C1396       C  0.78593750  0.38294693  0.64153700     0.37800
N1397       N  0.81659378  0.36775173  0.64073527    -0.88700
H1398       H  0.80616053  0.43050369  0.64202867     0.19000
H1399       H  0.70591457  0.36652828  0.63852645     0.18900
N1400       N  0.69484042  0.42812560  0.64239794    -0.87800
H1401       H  0.82909564  0.37430166  0.66608196     0.36300
H1402       H  0.82922070  0.37663037  0.61686666     0.41400
H1403       H  0.69621729  0.45301246  0.64444456     0.41000
H1404       H  0.68318652  0.42044376  0.66757943     0.35900
C1405       C  0.73234468  0.50773449  0.76006964    -0.25800
C1406       C  0.75965964  0.49508149  0.77828473    -0.13900
C1407       C  0.78387361  0.48149688  0.75508953     0.36800
C1408       C  0.78004619  0.48053861  0.71430957    -0.25200
C1409       C  0.75268790  0.49309896  0.69607242    -0.14500
C1410       C  0.72844208  0.50659857  0.71927161     0.37800
N1411       N  0.69967497  0.51848178  0.70141430    -0.88700
H1412       H  0.71367441  0.51786433  0.77792206     0.19000
H1413       H  0.79883065  0.47062389  0.69647769     0.18900
N1414       N  0.81255179  0.46938537  0.77299626    -0.87800
H1415       H  0.68435914  0.52789934  0.72242683     0.36300
H1416       H  0.68771114  0.49901365  0.68864974     0.41400
H1417       H  0.82452000  0.48867297  0.78612800     0.41000
H1418       H  0.82794585  0.46006671  0.75195742     0.35900
C1419       C  0.71252611  0.60147389  0.62546119    -0.25800
C1420       C  0.73945073  0.61918631  0.63781883    -0.13900
C1421       C  0.76558664  0.60251415  0.65472829     0.36800
C1422       C  0.76542445  0.56882770  0.65553038    -0.25200
C1423       C  0.73960812  0.55133605  0.64003412    -0.14500
C1424       C  0.71208465  0.56792603  0.62681700     0.37800
N1425       N  0.68362046  0.55150747  0.61354014    -0.88700
H1426       H  0.69176029  0.61370573  0.61375318     0.19000
H1427       H  0.78652708  0.55631799  0.66583166     0.18900
N1428       N  0.79310395  0.61944192  0.66933709    -0.87800
H1429       H  0.66481662  0.55882184  0.63138817     0.36300
H1430       H  0.68540484  0.52681888  0.61747451     0.41400
H1431       H  0.81313597  0.61166822  0.65395678     0.41000
H1432       H  0.79632145  0.61327654  0.69862547     0.35900
C1433       C  0.73792264  0.88778939  0.60333108    -0.25800
C1434       C  0.75929448  0.86547122  0.58753213    -0.13900
C1435       C  0.78589277  0.87698518  0.56620478     0.36800
C1436       C  0.79149609  0.91006846  0.56328598    -0.25200
C1437       C  0.77119208  0.93208740  0.58118005    -0.14500
C1438       C  0.74356385  0.92082327  0.60065198     0.37800
N1439       N  0.72177695  0.94197037  0.62014759    -0.88700
H1440       H  0.71718779  0.87958203  0.61931156     0.19000
H1441       H  0.81302706  0.91849994  0.54908960     0.18900
N1442       N  0.80829973  0.85532924  0.54909505    -0.87800
H1443       H  0.69939554  0.93943760  0.60656383     0.36300
H1444       H  0.72836142  0.96592770  0.61704631     0.41400
H1445       H  0.83090483  0.85995173  0.56125438     0.41000
H1446       H  0.80936205  0.86011494  0.51923949     0.35900
C1447       C  0.77233961  0.60898325  0.82062465    -0.25800
C1448       C  0.74417446  0.62247716  0.83575241    -0.13900
C1449       C  0.71857889  0.60189702  0.84557719     0.36800
C1450       C  0.72278170  0.56858244  0.84390739    -0.25200
C1451       C  0.75197901  0.55533644  0.83224296    -0.14500
C1452       C  0.77659036  0.57577782  0.81927340     0.37800
N1453       N  0.80693597  0.56355505  0.80724800    -0.88700
H1454       H  0.79215367  0.62425012  0.81222816     0.19000
H1455       H  0.70379925  0.55298558  0.85406924     0.18900
N1456       N  0.68859380  0.61459200  0.85819738    -0.87800
H1457       H  0.80309290  0.54821825  0.78355095     0.36300
H1458       H  0.81685114  0.55033503  0.83015757     0.41400
H1459       H  0.68400517  0.60579274  0.88610502     0.41000
H1460       H  0.67066607  0.60596822  0.83940912     0.35900
C1461       C  0.77926404  0.88518024  0.87827460    -0.25800
C1462       C  0.75034839  0.86933823  0.88598947    -0.13900
C1463       C  0.72386691  0.88729732  0.89883747     0.36800
C1464       C  0.72638744  0.92070099  0.90202811    -0.25200
C1465       C  0.75452810  0.93678590  0.89132941    -0.14500
C1466       C  0.78151291  0.91869168  0.87979368     0.37800
N1467       N  0.81094281  0.93342017  0.86747729    -0.88700
H1468       H  0.79977997  0.87152116  0.86873039     0.19000
H1469       H  0.70545386  0.93436576  0.91012012     0.18900
N1470       N  0.69404854  0.87225919  0.90828637    -0.87800
H1471       H  0.82894724  0.92634800  0.88694636     0.36300
H1472       H  0.80995070  0.95833681  0.86901127     0.41400
H1473       H  0.69832760  0.85523664  0.92996872     0.41000
H1474       H  0.68524228  0.86047259  0.88348200     0.35900
C1475       C  0.56888347  0.76471115  0.82208419    -0.25800
C1476       C  0.55395612  0.73596598  0.83296654    -0.13900
C1477       C  0.57312441  0.70952854  0.84357602     0.36800
C1478       C  0.60630246  0.71341208  0.84677453    -0.25200
C1479       C  0.62141471  0.74280275  0.83871246    -0.14500
C1480       C  0.60248979  0.76839227  0.82442272     0.37800
N1481       N  0.61701307  0.79847910  0.81431131    -0.88700
H1482       H  0.55414099  0.78499625  0.81416068     0.19000
H1483       H  0.62032737  0.69309506  0.85635996     0.18900
N1484       N  0.55965901  0.67867008  0.85267610    -0.87800
H1485       H  0.59952289  0.81520444  0.80671975     0.36300
H1486       H  0.63047398  0.79468289  0.78916612     0.41400
H1487       H  0.53503522  0.67801881  0.84727617     0.41000
H1488       H  0.56951625  0.66205241  0.83339446     0.35900
C1489       C  0.61045699  0.78053527  0.65248786    -0.25800
C1490       C  0.62258174  0.75109912  0.63913822    -0.13900
C1491       C  0.60100914  0.72529680  0.63346396     0.36800
C1492       C  0.56799617  0.73019542  0.63777663    -0.25200
C1493       C  0.55587456  0.76041782  0.64740337    -0.14500
C1494       C  0.57747696  0.78556432  0.65645774     0.37800
N1495       N  0.56679426  0.81709056  0.66693475    -0.88700
H1496       H  0.62653094  0.80054665  0.65784036     0.19000
H1497       H  0.55155767  0.71091825  0.63028322     0.18900
N1498       N  0.61224656  0.69435220  0.62200594    -0.87800
H1499       H  0.57585462  0.82219038  0.69477096     0.36300
H1500       H  0.54192469  0.81782017  0.66925830     0.41400
H1501       H  0.60135023  0.68830588  0.59541491     0.41000
H1502       H  0.60475353  0.67776163  0.64283476     0.35900
C1503       C  0.50465168  0.73200415  0.71172381    -0.25800
C1504       C  0.49335677  0.76111915  0.69668151    -0.13900
C1505       C  0.48240213  0.78477679  0.72303614     0.36800
C1506       C  0.48305386  0.77883780  0.76328592    -0.25200
C1507       C  0.49460155  0.74982674  0.77817360    -0.14500
C1508       C  0.50518382  0.72615672  0.75207928     0.37800
N1509       N  0.51573651  0.69584562  0.76650979    -0.88700
H1510       H  0.51302855  0.71369073  0.69192218     0.19000
H1511       H  0.47482672  0.79713333  0.78323382     0.18900
N1512       N  0.47154918  0.81542626  0.71002662    -0.87800
H1513       H  0.50126949  0.67801482  0.75398921     0.36300
H1514       H  0.53920568  0.69226835  0.75714349     0.41400
H1515       H  0.48924677  0.82580700  0.69277586     0.41000
H1516       H  0.45086455  0.81231024  0.69321316     0.35900
C1517       C  0.38441227  0.79236989  0.61460292    -0.25800
C1518       C  0.36958471  0.76439796  0.62825883    -0.13900
C1519       C  0.38850197  0.74149810  0.64842773     0.36800
C1520       C  0.42199806  0.74608117  0.65144004    -0.25200
C1521       C  0.43670455  0.77321206  0.63543338    -0.14500
C1522       C  0.41746220  0.79703851  0.61830180     0.37800
N1523       N  0.43164696  0.82591516  0.60379071    -0.88700
H1524       H  0.37033154  0.81072223  0.60033775     0.19000
H1525       H  0.43678624  0.72765948  0.66441444     0.18900
N1526       N  0.37411129  0.71299089  0.66399580    -0.87800
H1527       H  0.42606935  0.82770626  0.57411215     0.36300
H1528       H  0.42115441  0.84528479  0.61813335     0.41400
H1529       H  0.36014152  0.71989604  0.68768240     0.41000
H1530       H  0.39165981  0.69776913  0.67532986     0.35900
C1531       C  0.26733019  0.92982344  0.55895377    -0.25800
C1532       C  0.24194261  0.94623209  0.57626254    -0.13900
C1533       C  0.21557310  0.92892288  0.59048840     0.36800
C1534       C  0.21647338  0.89541469  0.59084435    -0.25200
C1535       C  0.24324522  0.87859866  0.57719536    -0.14500
C1536       C  0.26819336  0.89604779  0.55885039     0.37800
N1537       N  0.29499364  0.87976694  0.54199461    -0.88700
H1538       H  0.28752352  0.94336104  0.54796669     0.19000
H1539       H  0.19657388  0.88246452  0.60345006     0.18900
N1540       N  0.18868137  0.94566708  0.60648374    -0.87800
H1541       H  0.31165983  0.89624159  0.53128300     0.36300
H1542       H  0.28641661  0.86698932  0.51779894     0.41400
H1543       H  0.17132544  0.92948068  0.61627492     0.41000
H1544       H  0.17810764  0.95869236  0.58389619     0.35900
C1545       C  0.38259489  0.73307841  0.81216357    -0.25800
C1546       C  0.36776999  0.75769376  0.83357942    -0.13900
C1547       C  0.38724662  0.78155173  0.85111328     0.36800
C1548       C  0.42060229  0.77848427  0.85063079    -0.25200
C1549       C  0.43516310  0.75232484  0.83249607    -0.14500
C1550       C  0.41618301  0.73000065  0.81176194     0.37800
N1551       N  0.43090247  0.70341238  0.79228081    -0.88700
H1552       H  0.36800009  0.71505281  0.79766742     0.19000
H1553       H  0.43522250  0.79579858  0.86639350     0.18900
N1554       N  0.37337932  0.80860508  0.87027065    -0.87800
H1555       H  0.41358893  0.68928419  0.77817992     0.36300
H1556       H  0.44156198  0.68896758  0.81352676     0.41400
H1557       H  0.38209201  0.82937385  0.85701125     0.41000
H1558       H  0.38113835  0.80868365  0.89932392     0.35900
C1559       C  0.22273896  0.89893942  0.85826331    -0.25800
C1560       C  0.24361348  0.87932019  0.87972453    -0.13900
C1561       C  0.26488153  0.89409858  0.90707761     0.36800
C1562       C  0.26735443  0.92785359  0.90857605    -0.25200
C1563       C  0.24854204  0.94702643  0.88416373    -0.14500
C1564       C  0.22497082  0.93239763  0.86040387     0.37800
N1565       N  0.20407984  0.95164730  0.83696833    -0.88700
H1566       H  0.20544602  0.88840425  0.83823580     0.19000
H1567       H  0.28539103  0.93910074  0.92699880     0.18900
N1568       N  0.28456152  0.87499440  0.93241402    -0.87800
H1569       H  0.18048742  0.94617607  0.84455065     0.36300
H1570       H  0.20720236  0.94520838  0.80777831     0.41400
H1571       H  0.26927489  0.86275471  0.95129296     0.41000
H1572       H  0.29916212  0.88955874  0.94998635     0.35900
C1573       C  0.06749537  0.77232633  0.60793813    -0.25800
C1574       C  0.05290466  0.74640579  0.58865324    -0.13900
C1575       C  0.07190131  0.72523919  0.56710270     0.36800
C1576       C  0.10538748  0.72922400  0.56701821    -0.25200
C1577       C  0.12042222  0.75394204  0.58866972    -0.14500
C1578       C  0.10083697  0.77641264  0.60807763     0.37800
N1579       N  0.11453527  0.80281293  0.62926103    -0.88700
H1580       H  0.05296176  0.78863076  0.62483492     0.19000
H1581       H  0.11967767  0.71192098  0.55139117     0.18900
N1582       N  0.05749367  0.69845080  0.54746326    -0.87800
H1583       H  0.10741844  0.80105856  0.65833130     0.36300
H1584       H  0.10511563  0.82397506  0.61781114     0.41400
H1585       H  0.06333902  0.69989323  0.51795813     0.41000
H1586       H  0.06755962  0.67751946  0.55870938     0.35900
C1587       C  0.88303763  0.69995475  0.60486711    -0.25800
C1588       C  0.86774854  0.72702605  0.58948222    -0.13900
C1589       C  0.88634646  0.75021959  0.56950137     0.36800
C1590       C  0.91993327  0.74740068  0.56920515    -0.25200
C1591       C  0.93516438  0.72179556  0.58780555    -0.14500
C1592       C  0.91642674  0.69709568  0.60395358     0.37800
N1593       N  0.93142357  0.66958933  0.62085510    -0.88700
H1594       H  0.86912755  0.68139608  0.61897872     0.19000
H1595       H  0.93430931  0.76647526  0.55694221     0.18900
N1596       N  0.87147319  0.77766829  0.55195066    -0.87800
H1597       H  0.92260049  0.64923107  0.60647285     0.36300
H1598       H  0.92460242  0.66818507  0.65005910     0.41400
H1599       H  0.85854001  0.76956013  0.52760299     0.41000
H1600       H  0.88876214  0.79349800  0.54128582     0.35900
C1601       C  0.06779805  0.77916286  0.87756191    -0.25800
C1602       C  0.05392542  0.75113587  0.89243970    -0.13900
C1603       C  0.07388494  0.72618763  0.90495803     0.36800
C1604       C  0.10719212  0.72874626  0.89987651    -0.25200
C1605       C  0.12094234  0.75565536  0.88148025    -0.14500
C1606       C  0.10089878  0.78160490  0.87171736     0.37800
N1607       N  0.11373575  0.81013249  0.85468356    -0.88700
H1608       H  0.05249444  0.79837533  0.86745192     0.19000
H1609       H  0.12204843  0.70869824  0.90832783     0.18900
N1610       N  0.06026565  0.69727807  0.92002554    -0.87800
H1611       H  0.10769809  0.82950860  0.87248611     0.36300
H1612       H  0.10269336  0.81338755  0.82752148     0.41400
H1613       H  0.06992276  0.69350358  0.94782370     0.41000
H1614       H  0.06728925  0.67828199  0.90215989     0.35900
C1615       C  0.91809309  0.70613631  0.87472547    -0.25800
C1616       C  0.93545264  0.73072716  0.89322230    -0.13900
C1617       C  0.91882811  0.75567408  0.91165832     0.36800
C1618       C  0.88523239  0.75668273  0.90914009    -0.25200
C1619       C  0.86801307  0.73364685  0.88732259    -0.14500
C1620       C  0.88471181  0.70744326  0.87131015     0.37800
N1621       N  0.86808790  0.68255565  0.85045919    -0.88700
H1622       H  0.93076782  0.68697970  0.86016919     0.19000
H1623       H  0.87286134  0.77678241  0.92206277     0.18900
N1624       N  0.93600374  0.78137274  0.93013890    -0.87800
H1625       H  0.87316825  0.66075100  0.86400169     0.36300
H1626       H  0.87708952  0.68166218  0.82212562     0.41400
H1627       H  0.92854267  0.78277604  0.95910778     0.41000
H1628       H  0.92970861  0.80271894  0.91627004     0.35900
C1629       C  0.98383691  0.71129665  0.51022123    -0.25800
C1630       C  0.99302810  0.73769855  0.53318421    -0.13900
C1631       C  0.00179568  0.76663012  0.51442570     0.36800
C1632       C  0.00278400  0.76433264  0.97012774    -0.25200
C1633       C  0.99563406  0.73665246  0.94841291    -0.14500
C1634       C  0.98743027  0.70813689  0.96842178     0.37800
N1635       N  0.98144911  0.67837986  0.94839013    -0.88700
H1636       H  0.97715166  0.68912277  0.52438577     0.19000
H1637       H  0.00874135  0.78624615  0.95494106     0.18900
N1638       N  0.00902127  0.79549139  0.53578387    -0.87800
H1639       H  0.99850138  0.66194892  0.95822798     0.36300
H1640       H  0.98513950  0.68055919  0.91850490     0.41400
H1641       H  0.00484904  0.79260713  0.56547837     0.41000
H1642       H  0.99277130  0.81294940  0.52662090     0.35900
C1643       C  0.27143749  0.43210790  0.83720328    -0.25800
C1644       C  0.24359296  0.44552120  0.82130751    -0.13900
C1645       C  0.21940462  0.42513076  0.80644362     0.36800
C1646       C  0.22250912  0.39189689  0.81015304    -0.25200
C1647       C  0.24928084  0.37836369  0.82896593    -0.14500
C1648       C  0.27487933  0.39877642  0.84061709     0.37800
N1649       N  0.30387480  0.38581151  0.85689660    -0.88700
H1650       H  0.28982342  0.44781881  0.84910344     0.19000
H1651       H  0.20298801  0.37673215  0.80008118     0.18900
N1652       N  0.19059876  0.43760368  0.78956976    -0.87800
H1653       H  0.31987585  0.40412921  0.86468130     0.36300
H1654       H  0.31497338  0.37257496  0.83495171     0.41400
H1655       H  0.19682563  0.45156114  0.76556211     0.41000
H1656       H  0.17945295  0.45228502  0.81005854     0.35900
C1657       C  0.20569975  0.61696591  0.83160315    -0.25800
C1658       C  0.23547076  0.63174650  0.82521956    -0.13900
C1659       C  0.26134784  0.61276542  0.81215261     0.36800
C1660       C  0.25766222  0.57918642  0.80993841    -0.25200
C1661       C  0.22860611  0.56448373  0.81975894    -0.14500
C1662       C  0.20206773  0.58366869  0.82863388     0.37800
N1663       N  0.17158164  0.56914015  0.83603227    -0.88700
H1664       H  0.18530173  0.63123308  0.84013309     0.19000
H1665       H  0.27810680  0.56434387  0.80320946     0.18900
N1666       N  0.29181500  0.62723510  0.80381032    -0.87800
H1667       H  0.15500370  0.57855089  0.81619350     0.36300
H1668       H  0.16450325  0.57567566  0.86408976     0.41400
H1669       H  0.28899153  0.64076960  0.77845714     0.41000
H1670       H  0.30873691  0.60968895  0.79725497     0.35900
C1671       C  0.26492345  0.58162233  0.65423184    -0.25800
C1672       C  0.24697848  0.56413113  0.62671747    -0.13900
C1673       C  0.22536214  0.58030121  0.60218806     0.36800
C1674       C  0.22422922  0.61367365  0.60260895    -0.25200
C1675       C  0.24428673  0.63179086  0.62734152    -0.14500
C1676       C  0.26352946  0.61543676  0.65522422     0.37800
N1677       N  0.28220366  0.63296345  0.68356521    -0.88700
H1678       H  0.28129587  0.56908000  0.67343214     0.19000
H1679       H  0.20828846  0.62536836  0.58211676     0.18900
N1680       N  0.20508411  0.56274107  0.57575521    -0.87800
H1681       H  0.29540065  0.61729384  0.70111108     0.36300
H1682       H  0.26619012  0.64453306  0.70207630     0.41400
H1683       H  0.20998498  0.57040954  0.54743445     0.41000
H1684       H  0.18131959  0.56850244  0.58191422     0.35900
C1685       C  0.23759457  0.43017185  0.64441983    -0.25800
C1686       C  0.26580589  0.44582055  0.63333982    -0.13900
C1687       C  0.29323140  0.42772234  0.62529168     0.36800
C1688       C  0.29143101  0.39427261  0.62502328    -0.25200
C1689       C  0.26247620  0.37827618  0.63253591    -0.14500
C1690       C  0.23561610  0.39645538  0.64444615     0.37800
N1691       N  0.20593302  0.38093864  0.65410190    -0.88700
H1692       H  0.21646010  0.44422879  0.65040311     0.19000
H1693       H  0.31256121  0.38082366  0.61719995     0.18900
N1694       N  0.32269592  0.44341631  0.61570631    -0.87800
H1695       H  0.18816111  0.39788635  0.65961755     0.36300
H1696       H  0.20958670  0.36874357  0.68030368     0.41400
H1697       H  0.32951696  0.43576589  0.58795565     0.41000
H1698       H  0.34018890  0.43598996  0.63564154     0.35900
C1699       C  0.27611684  0.49756444  0.70913925    -0.25800
C1700       C  0.25038995  0.50541587  0.68443132    -0.13900
C1701       C  0.22045415  0.51270269  0.70097832     0.36800
C1702       C  0.21720647  0.51311639  0.74157908    -0.25200
C1703       C  0.24296599  0.50553681  0.76634438    -0.14500
C1704       C  0.27287800  0.49767889  0.74985077     0.37800
N1705       N  0.30065379  0.49096179  0.77333403    -0.88700
H1706       H  0.29908338  0.49178242  0.69653971     0.19000
H1707       H  0.19412976  0.51858356  0.75408383     0.18900
N1708       N  0.19263396  0.51820402  0.67733472    -0.87800
H1709       H  0.30643772  0.46685261  0.76914535     0.36300
H1710       H  0.29613028  0.49420332  0.80290640     0.41400
H1711       H  0.18941384  0.49860240  0.65866976     0.41000
H1712       H  0.19632424  0.53860785  0.66052005     0.35900
loop_ 
_geom_bond_atom_site_label_1 
_geom_bond_atom_site_label_2 
_geom_bond_distance 
_geom_bond_site_symmetry_2 
_ccdc_geom_bond_type 
N1            C5   1.360       .  A
N1            C2   1.359       .  A
N1          C844   1.443       .  S
C2            C3   1.381       .  A
C2          C830   1.479       .  S
C3            C4   1.369       .  A
C3            H6   1.082       .  S
C4            C5   1.382       .  A
C4            H7   1.082       .  S
C5          C816   1.480       .  S
N8           C12   1.359       .  A
N8            C9   1.360       .  A
N8          C847   1.442       .  S
C9           C10   1.384       .  A
C9          C805   1.483       .  S
C10          C11   1.369       .  A
C10          H13   1.082       .  S
C11          C12   1.379       .  A
C11          H14   1.082       .  S
C12         C788   1.476       .  S
N15          C19   1.360       .  A
N15          C16   1.361   1_655  A
N15         C777   1.446       .  S
C16          C17   1.382       .  A
C16         C746   1.477       .  S
C17          C18   1.367   1_455  A
C17          H20   1.083       .  S
C18          C19   1.380       .  A
C18          H21   1.082       .  S
C19         C760   1.475       .  S
N22          C26   1.357   1_655  A
N22          C23   1.360       .  A
N22         C774   1.444       .  S
C23          C24   1.384       .  A
C23         C735   1.479       .  S
C24          C25   1.369   1_655  A
C24          H27   1.082       .  S
C25          C26   1.379       .  A
C25          H28   1.082       .  S
C26         C718   1.471       .  S
Zn29         O33   1.940       .  S
Zn29         O34   1.933       .  S
Zn29         O38   2.017       .  S
Zn29         O45   2.014       .  S
Zn30         O33   1.984       .  S
Zn30         O35   2.041       .  S
Zn30         O37   2.057       .  S
Zn30         O41   2.040       .  S
Zn31         O33   1.952       .  S
Zn31         O36   2.026       .  S
Zn31         O39   2.009       .  S
Zn31         O42   2.005       .  S
Zn32         O33   1.948       .  S
Zn32         O40   1.988       .  S
Zn32         O43   2.017       .  S
Zn32         O44   2.025       .  S
O34          C46   1.267       .  A
O35          C47   1.277       .  A
O36          C48   1.275       .  A
O37          C46   1.277       .  A
O38          C48   1.271       .  A
O39          C47   1.272       .  A
O40          C49   1.272       .  A
O41          C50   1.277       .  A
O42          C49   1.274       .  A
O43          C50   1.272       .  A
O44          C51   1.274       .  A
O45          C51   1.271       .  A
C46          C73   1.458       .  S
C47         C749   1.492       .  S
C48         C802   1.486       .  S
C49         C927   1.457       .  S
C50         C704   1.499       .  S
C51         C690   1.492       .  S
Zn52         O56   1.956       .  S
Zn52         O57   2.017       .  S
Zn52         O61   1.989       .  S
Zn52         O68   2.017       .  S
Zn53         O56   1.930       .  S
Zn53         O58   2.014       .  S
Zn53         O60   2.013       .  S
Zn53         O64   1.942       .  S
Zn54         O56   1.953       .  S
Zn54         O59   1.993       .  S
Zn54         O62   2.030       .  S
Zn54         O65   2.013       .  S
Zn55         O56   1.972       .  S
Zn55         O63   2.017       .  S
Zn55         O66   2.043       .  S
Zn55         O67   2.015       .  S
O57          C69   1.274       .  A
O58          C70   1.270       .  A
O59          C71   1.273   1_554  A
O60          C69   1.271       .  A
O61          C71   1.272   1_554  A
O62          C70   1.275       .  A
O63          C72   1.275       .  A
O64          C73   1.269       .  A
O65          C72   1.272       .  A
O66          C73   1.274       .  A
O67          C74   1.273       .  A
O68          C74   1.272       .  A
C69         C819   1.493       .  S
C70         C662   1.494       .  S
C71         C905   1.453       .  S
C72         C679   1.488       .  S
C74         C721   1.489       .  S
N75          C79   1.362       .  A
N75          C76   1.365       .  A
N75         C648   1.449       .  S
C76          C77   1.384       .  A
C76         C665   1.482       .  S
C77          C78   1.365       .  A
C77          H80   1.082       .  S
C78          C79   1.378       .  A
C78          H81   1.083       .  S
C79         C637   1.477       .  S
N82          C86   1.360       .  A
N82          C83   1.360       .  A
N82         C651   1.444       .  S
C83          C84   1.381       .  A
C83         C620   1.478       .  S
C84          C85   1.368       .  A
C84          H87   1.082       .  S
C85          C86   1.382       .  A
C85          H88   1.082       .  S
C86         C693   1.478       .  S
Zn89         O93   1.940       .  S
Zn89         O94   2.033       .  S
Zn89         O98   1.947       .  S
Zn89        O105   2.030       .  S
Zn90         O93   1.952       .  S
Zn90         O95   2.014       .  S
Zn90         O97   2.013       .  S
Zn90        O101   1.985       .  S
Zn91         O93   1.980       .  S
Zn91         O96   2.045       .  S
Zn91         O99   2.024       .  S
Zn91        O102   2.004       .  S
Zn92         O93   1.962       .  S
Zn92        O100   2.038       .  S
Zn92        O103   2.016       .  S
Zn92        O104   2.047       .  S
O94         C106   1.274       .  A
O95         C107   1.271       .  A
O96         C108   1.273       .  A
O97         C106   1.273       .  A
O98         C108   1.270       .  A
O99         C107   1.274       .  A
O100        C109   1.275       .  A
O101        C110   1.271       .  A
O102        C109   1.274       .  A
O103        C110   1.275       .  A
O104        C111   1.277       .  A
O105        C111   1.272       .  A
C106        C763   1.489       .  S
C107        C592   1.492       .  S
C108        C988   1.460       .  S
C109        C623   1.492       .  S
C110        C129   1.459       .  S
C111        C606   1.480       .  S
Zn112       O116   1.947       .  S
Zn112       O117   2.005       .  S
Zn112       O121   2.036       .  S
Zn112       O128   2.021       .  S
Zn113       O116   1.955       .  S
Zn113       O118   2.032       .  S
Zn113       O120   1.996       .  S
Zn113       O124   2.007       .  S
Zn114       O116   1.924       .  S
Zn114       O119   1.991       .  S
Zn114       O122   1.987       .  S
Zn114       O125   1.926       .  S
Zn115       O116   1.976       .  S
Zn115       O123   2.057       .  S
Zn115       O126   2.032       .  S
Zn115       O127   2.024       .  S
O117        C129   1.275       .  A
O118        C130   1.275       .  A
O119        C131   1.267       .  A
O120        C129   1.272       .  A
O121        C131   1.276       .  A
O122        C130   1.268       .  A
O123        C132   1.276       .  A
O124        C133   1.273       .  A
O125        C132   1.266       .  A
O126        C133   1.276       .  A
O127        C134   1.276       .  A
O128        C134   1.273       .  A
C130        C578   1.478       .  S
C131        C732   1.488       .  S
C132        C964   1.458   1_554  S
C133        C634   1.488       .  S
C134        C564   1.491       .  S
N135        C139   1.361       .  A
N135        C136   1.361       .  A
N135        C553   1.447       .  S
C136        C137   1.380       .  A
C136        C536   1.477       .  S
C137        C138   1.369       .  A
C137        H140   1.082       .  S
C138        C139   1.381       .  A
C138        H141   1.082       .  S
C139        C567   1.478       .  S
N142        C146   1.362       .  A
N142        C143   1.361       .  A
N142        C550   1.447       .  S
C143        C144   1.381       .  A
C143        C595   1.479       .  S
C144        C145   1.368       .  A
C144        H147   1.082       .  S
C145        C146   1.381       .  A
C145        H148   1.082       .  S
C146        C522   1.480       .  S
N149        C153   1.362   1_565  A
N149        C150   1.364       .  A
N149        C511   1.446       .  S
C150        C151   1.382       .  A
C150        C609   1.485       .  S
C151        C152   1.368   1_565  A
C151        H154   1.082       .  S
C152        C153   1.381       .  A
C152        H155   1.082       .  S
C153        C497   1.483       .  S
N156        C160   1.354   1_565  A
N156        C157   1.354       .  A
N156        C508   1.440       .  S
C157        C158   1.381       .  A
C157        C581   1.467       .  S
C158        C159   1.371   1_565  A
C158        H161   1.082       .  S
C159        C160   1.381       .  A
C159        H162   1.082       .  S
C160        C483   1.469       .  S
Zn163       O167   1.976       .  S
Zn163       O168   2.044       .  S
Zn163       O172   2.031       .  S
Zn163       O179   2.043       .  S
Zn164       O167   1.959       .  S
Zn164       O169   2.005       .  S
Zn164       O171   2.016       .  S
Zn164       O175   2.019       .  S
Zn165       O167   1.952       .  S
Zn165       O170   2.021       .  S
Zn165       O173   1.999       .  S
Zn165       O176   2.037       .  S
Zn166       O167   1.943       .  S
Zn166       O174   2.009       .  S
Zn166       O177   2.016       .  S
Zn166       O178   1.964       .  S
O168        C180   1.276       .  A
O169        C181   1.272       .  A
O170        C182   1.274       .  A
O171        C180   1.273       .  A
O172        C182   1.275       .  A
O173        C181   1.273       .  A
O174        C183   1.271       .  A
O175        C184   1.274       .  A
O176        C183   1.276       .  A
O177        C184   1.272       .  A
O178        C185   1.269       .  A
O179        C185   1.276       .  A
C180        C494   1.490       .  S
C181       C1060   1.449       .  S
C182        C466   1.490       .  S
C183        C525   1.489       .  S
C184        C455   1.486       .  S
C185        C208   1.450       .  S
Zn186       O190   1.957       .  S
Zn186       O191   2.025       .  S
Zn186       O195   2.022       .  S
Zn186       O202   2.012       .  S
Zn187       O190   1.966       .  S
Zn187       O192   2.033       .  S
Zn187       O194   2.013       .  S
Zn187       O198   2.020       .  S
Zn188       O190   1.953       .  S
Zn188       O193   2.017       .  S
Zn188       O196   1.974       .  S
Zn188       O199   2.022       .  S
Zn189       O190   1.950       .  S
Zn189       O197   1.995       .  S
Zn189       O200   2.007       .  S
Zn189       O201   1.996       .  S
O191        C203   1.272       .  A
O192        C204   1.274       .  A
O193        C205   1.272       .  A
O194        C203   1.274       .  A
O195        C205   1.276       .  A
O196        C204   1.269       .  A
O197        C206   1.271       .  A
O198        C207   1.273       .  A
O199        C206   1.272       .  A
O200        C207   1.271       .  A
O201        C208   1.270       .  A
O202        C208   1.274       .  A
C203        C539   1.487       .  S
C204       C1037   1.450   1_554  S
C205        C438   1.484       .  S
C206        C480   1.481       .  S
C207        C424   1.477       .  S
N209        C213   1.359       .  A
N209        C210   1.361       .  A
N209        C410   1.448       .  S
C210        C211   1.383       .  A
C210        C396   1.481       .  S
C211        C212   1.368       .  A
C211        H214   1.082       .  S
C212        C213   1.380       .  A
C212        H215   1.082       .  S
C213        C427   1.473       .  S
N216        C220   1.364       .  A
N216        C217   1.361       .  A
N216        C413   1.448       .  S
C217        C218   1.379       .  A
C217        C452   1.477       .  S
C218        C219   1.366       .  A
C218        H221   1.082       .  S
C219        C220   1.382       .  A
C219        H222   1.083       .  S
C220        C382   1.481       .  S
N223        C227   1.364   1_545  A
N223        C224   1.362       .  A
N223        C368   1.447       .  S
C224        C225   1.380       .  A
C224        C354   1.481       .  S
C225        C226   1.366   1_545  A
C225        H228   1.082       .  S
C226        C227   1.382       .  A
C226        H229   1.082       .  S
C227        C707   1.482       .  S
N230        C234   1.360       .  A
N230        C231   1.357   1_545  A
N230        C371   1.445       .  S
C231        C232   1.381       .  A
C231        C676   1.473       .  S
C232        C233   1.368   1_565  A
C232        H235   1.082       .  S
C233        C234   1.383       .  A
C233        H236   1.082       .  S
C234        C340   1.477       .  S
N237        C241   1.360       .  A
N237        C238   1.361   1_455  A
N237        C326   1.445       .  S
C238        C239   1.379       .  A
C238        C469   1.477       .  S
C239        C240   1.369   1_655  A
C239        H242   1.082       .  S
C240        C241   1.382       .  A
C240        H243   1.082       .  S
C241        C312   1.479       .  S
N244        C248   1.359       .  A
N244        C245   1.358   1_455  A
N244        C329   1.441       .  S
C245        C246   1.382       .  A
C245        C441   1.477       .  S
C246        C247   1.369   1_655  A
C246        H249   1.082       .  S
C247        C248   1.381       .  A
C247        H250   1.082       .  S
C248        C298   1.476       .  S
Zn251       O255   1.930       .  S
Zn251       O256   2.004       .  S
Zn251       O260   1.940       .  S
Zn251       O267   2.005       .  S
Zn252       O255   1.958       .  S
Zn252       O257   2.023       .  S
Zn252       O259   2.048       .  S
Zn252       O263   1.993       .  S
Zn253       O255   1.976       .  S
Zn253       O258   2.054       .  S
Zn253       O261   2.026       .  S
Zn253       O264   2.021       .  S
Zn254       O255   1.962       .  S
Zn254       O262   2.023       .  S
Zn254       O265   1.997       .  S
Zn254       O266   2.042       .  S
O256        C268   1.269       .  A
O257        C269   1.274       .  A
O258        C270   1.276       .  A
O259        C268   1.277       .  A
O260        C270   1.268       .  A
O261        C269   1.275       .  A
O262        C271   1.273       .  A
O263        C272   1.273       .  A
O264        C271   1.274       .  A
O265        C272   1.273       .  A
O266        C273   1.277       .  A
O267        C273   1.270       .  A
C268        C315   1.495       .  S
C269        C791   1.494       .  S
C270       C1147   1.460       .  S
C271        C385   1.489       .  S
C272        C294   1.456       .  S
C273        C357   1.491       .  S
Zn274       O278   1.930       .  S
Zn274       O279   1.926       .  S
Zn274       O283   2.000       .  S
Zn274       O290   1.997       .  S
Zn275       O278   1.970       .  S
Zn275       O280   2.029       .  S
Zn275       O282   2.043       .  S
Zn275       O286   2.020       .  S
Zn276       O278   1.948       .  S
Zn276       O281   2.022       .  S
Zn276       O284   2.023       .  S
Zn276       O287   1.994       .  S
Zn277       O278   1.955       .  S
Zn277       O285   1.999       .  S
Zn277       O288   2.022       .  S
Zn277       O289   2.034       .  S
O279        C291   1.266       .  A
O280        C292   1.276       .  A
O281        C293   1.274       .  A
O282        C291   1.275       .  A
O283        C293   1.269       .  A
O284        C292   1.272       .  A
O285        C294   1.274       .  A
O286        C295   1.276       .  A
O287        C294   1.273       .  A
O288        C295   1.273       .  A
O289        C296   1.275       .  A
O290        C296   1.268       .  A
C291       C1126   1.454   1_554  S
C292        C833   1.490       .  S
C293        C301   1.483       .  S
C295        C399   1.492       .  S
C296        C343   1.493       .  S
C297        C298   1.403       .  A
C297        C302   1.398       .  A
C297        H304   1.084       .  S
C298        C299   1.416       .  A
C299        C300   1.405       .  A
C299        N306   1.438       .  S
C300        C301   1.408       .  A
C300        H305   1.084       .  S
C301        C302   1.408       .  A
C302        N303   1.433       .  S
N303        H307   1.046       .  S
N303        H308   1.046       .  S
N306        H309   1.041       .  S
N306        H310   1.046       .  S
C311        C312   1.400       .  A
C311        C316   1.411       .  A
C311        H318   1.084       .  S
C312        C313   1.417       .  A
C313        C314   1.400       .  A
C313        N320   1.440       .  S
C314        C315   1.404       .  A
C314        H319   1.084       .  S
C315        C316   1.422       .  A
C316        N317   1.438       .  S
N317        H321   1.046       .  S
N317        H322   1.045       .  S
N320        H323   1.043       .  S
N320        H324   1.046       .  S
C325        C326   1.404       .  A
C325       C1186   1.406       .  A
C325        H332   1.083       .  S
C326        C327   1.418       .  A
C327       C1184   1.406       .  A
C327        N334   1.438   1_455  S
C328        C329   1.402       .  A
C328       C1183   1.403   1_454  A
C328        H333   1.082   1_455  S
C329        C330   1.410       .  A
C330       C1181   1.402   1_554  A
C330        N331   1.430       .  S
N331        H335   1.043       .  S
N331        H336   1.045   1_455  S
N334        H337   1.043       .  S
N334        H338   1.046   1_655  S
C339        C340   1.398       .  A
C339        C344   1.410       .  A
C339        H346   1.083       .  S
C340        C341   1.407       .  A
C341        C342   1.399       .  A
C341        N348   1.433       .  S
C342        C343   1.405       .  A
C342        H347   1.084       .  S
C343        C344   1.423       .  A
C344        N345   1.438       .  S
N345        H349   1.046       .  S
N345        H350   1.045       .  S
N348        H351   1.045       .  S
N348        H352   1.046       .  S
C353        C354   1.401       .  A
C353        C358   1.411       .  A
C353        H360   1.084       .  S
C354        C355   1.409       .  A
C355        C356   1.404       .  A
C355        N362   1.438       .  S
C356        C357   1.404       .  A
C356        H361   1.083       .  S
C357        C358   1.421       .  A
C358        N359   1.438       .  S
N359        H363   1.045       .  S
N359        H364   1.046       .  S
N362        H365   1.046       .  S
N362        H366   1.045       .  S
C367        C368   1.405       .  A
C367       C1228   1.406       .  A
C367        H374   1.083       .  S
C368        C369   1.419   1_545  A
C369       C1226   1.408       .  A
C369        N376   1.438       .  S
C370        C371   1.405       .  A
C370       C1225   1.407   1_554  A
C370        H375   1.083   1_545  S
C371        C372   1.415       .  A
C372       C1223   1.406   1_554  A
C372        N373   1.437       .  S
N373        H377   1.046   1_545  S
N373        H378   1.043       .  S
N376        H379   1.042       .  S
N376        H380   1.046   1_565  S
C381        C382   1.403       .  A
C381        C386   1.401       .  A
C381        H388   1.084       .  S
C382        C383   1.414       .  A
C383        C384   1.404       .  A
C383        N390   1.431       .  S
C384        C385   1.408       .  A
C384        H389   1.084       .  S
C385        C386   1.412       .  A
C386        N387   1.433       .  S
N387        H391   1.045       .  S
N387        H392   1.046       .  S
N390        H393   1.045       .  S
N390        H394   1.043       .  S
C395        C396   1.400       .  A
C395        C400   1.407       .  A
C395        H402   1.084       .  S
C396        C397   1.411       .  A
C397        C398   1.402       .  A
C397        N404   1.438       .  S
C398        C399   1.406       .  A
C398        H403   1.083       .  S
C399        C400   1.418       .  A
C400        N401   1.432       .  S
N401        H405   1.046       .  S
N401        H406   1.046       .  S
N404        H407   1.045       .  S
N404        H408   1.046       .  S
C409        C410   1.402       .  A
C409        C414   1.403       .  A
C409        H416   1.083       .  S
C410        C411   1.411       .  A
C411        C412   1.406       .  A
C411        N418   1.430       .  S
C412        C413   1.403       .  A
C412        H417   1.083       .  S
C413        C414   1.418       .  A
C414        N415   1.431       .  S
N415        H419   1.041       .  S
N415        H420   1.044       .  S
N418        H421   1.046       .  S
N418        H422   1.045       .  S
C423        C424   1.402       .  A
C423        C428   1.398       .  A
C423        H430   1.084       .  S
C424        C425   1.412       .  A
C425        C426   1.407       .  A
C425        N432   1.437       .  S
C426        C427   1.402       .  A
C426        H431   1.084       .  S
C427        C428   1.416       .  A
C428        N429   1.439       .  S
N429        H433   1.046       .  S
N429        H434   1.043       .  S
N432        H435   1.046       .  S
N432        H436   1.045       .  S
C437        C438   1.403       .  A
C437        C442   1.399       .  A
C437        H444   1.084       .  S
C438        C439   1.412       .  A
C439        C440   1.405       .  A
C439        N446   1.432       .  S
C440        C441   1.402       .  A
C440        H445   1.081       .  S
C441        C442   1.416       .  A
C442        N443   1.439       .  S
N443        H447   1.046       .  S
N443        H448   1.044       .  S
N446        H449   1.046       .  S
N446        H450   1.046       .  S
C451        C452   1.403       .  A
C451        C456   1.401       .  A
C451        H458   1.084       .  S
C452        C453   1.414       .  A
C453        C454   1.404       .  A
C453        N460   1.436       .  S
C454        C455   1.407       .  A
C454        H459   1.084       .  S
C455        C456   1.411       .  A
C456        N457   1.433       .  S
N457        H461   1.046       .  S
N457        H462   1.046       .  S
N460        H463   1.042       .  S
N460        H464   1.045       .  S
C465        C466   1.407       .  A
C465        C470   1.404       .  A
C465        H472   1.084       .  S
C466        C467   1.412       .  A
C467        C468   1.404       .  A
C467        N474   1.432       .  S
C468        C469   1.402       .  A
C468        H473   1.084       .  S
C469        C470   1.416       .  A
C470        N471   1.438       .  S
N471        H475   1.045       .  S
N471        H476   1.042       .  S
N474        H477   1.045       .  S
N474        H478   1.046       .  S
C479        C480   1.408       .  A
C479        C484   1.406       .  A
C479        H486   1.084       .  S
C480        C481   1.413       .  A
C481        C482   1.397       .  A
C481        N488   1.433       .  S
C482        C483   1.398       .  A
C482        H487   1.084       .  S
C483        C484   1.404       .  A
C484        N485   1.432       .  S
N485        H489   1.045       .  S
N485        H490   1.046       .  S
N488        H491   1.046       .  S
N488        H492   1.046       .  S
C493        C494   1.405       .  A
C493        C498   1.402       .  A
C493        H500   1.084       .  S
C494        C495   1.418       .  A
C495        C496   1.405       .  A
C495        N502   1.432       .  S
C496        C497   1.403       .  A
C496        H501   1.084       .  S
C497        C498   1.416       .  A
C498        N499   1.439       .  S
N499        H503   1.046       .  S
N499        H504   1.044       .  S
N502        H505   1.046       .  S
N502        H506   1.044       .  S
C507        C508   1.400       .  A
C507       C1368   1.408   1_554  A
C507        H514   1.083       .  S
C508        C509   1.406   1_565  A
C509       C1366   1.407   1_554  A
C509        N516   1.431       .  S
C510        C511   1.405   1_545  A
C510       C1365   1.410       .  A
C510        H515   1.083       .  S
C511        C512   1.410       .  A
C512       C1363   1.409       .  A
C512        N513   1.436       .  S
N513        H517   1.046       .  S
N513        H518   1.045       .  S
N516        H519   1.046   1_545  S
N516        H520   1.045       .  S
C521        C522   1.401       .  A
C521        C526   1.410       .  A
C521        H528   1.084       .  S
C522        C523   1.416       .  A
C523        C524   1.401       .  A
C523        N530   1.439       .  S
C524        C525   1.403       .  A
C524        H529   1.084       .  S
C525        C526   1.418       .  A
C526        N527   1.438       .  S
N527        H531   1.046       .  S
N527        H532   1.046       .  S
N530        H533   1.044       .  S
N530        H534   1.046       .  S
C535        C536   1.403       .  A
C535        C540   1.410       .  A
C535        H542   1.083       .  S
C536        C537   1.414       .  A
C537        C538   1.399       .  A
C537        N544   1.439       .  S
C538        C539   1.404       .  A
C538        H543   1.084       .  S
C539        C540   1.416       .  A
C540        N541   1.438       .  S
N541        H545   1.046       .  S
N541        H546   1.046       .  S
N544        H547   1.043       .  S
N544        H548   1.046       .  S
C549        C550   1.404       .  A
C549        C554   1.410       .  A
C549        H556   1.083       .  S
C550        C551   1.412       .  A
C551        C552   1.408       .  A
C551        N558   1.436       .  S
C552        C553   1.403       .  A
C552        H557   1.082       .  S
C553        C554   1.412       .  A
C554        N555   1.436       .  S
N555        H559   1.046       .  S
N555        H560   1.045       .  S
N558        H561   1.046       .  S
N558        H562   1.045       .  S
C563        C564   1.405       .  A
C563        C568   1.400       .  A
C563        H570   1.084       .  S
C564        C565   1.416       .  A
C565        C566   1.407       .  A
C565        N572   1.432       .  S
C566        C567   1.400       .  A
C566        H571   1.084       .  S
C567        C568   1.417       .  A
C568        N569   1.440       .  S
N569        H573   1.046       .  S
N569        H574   1.043       .  S
N572        H575   1.046       .  S
N572        H576   1.046       .  S
C577        C578   1.402       .  A
C577        C582   1.400       .  A
C577        H584   1.084       .  S
C578        C579   1.413       .  A
C579        C580   1.401       .  A
C579        N586   1.433       .  S
C580        C581   1.399       .  A
C580        H585   1.084       .  S
C581        C582   1.415       .  A
C582        N583   1.439       .  S
N583        H587   1.046       .  S
N583        H588   1.043       .  S
N586        H589   1.046       .  S
N586        H590   1.045       .  S
C591        C592   1.409       .  A
C591        C596   1.403       .  A
C591        H598   1.084       .  S
C592        C593   1.413       .  A
C593        C594   1.403       .  A
C593        N600   1.433       .  S
C594        C595   1.402       .  A
C594        H599   1.084       .  S
C595        C596   1.411       .  A
C596        N597   1.432       .  S
N597        H601   1.044       .  S
N597        H602   1.046       .  S
N600        H603   1.046       .  S
N600        H604   1.045       .  S
C605        C606   1.399       .  A
C605        C610   1.401       .  A
C605        H612   1.084       .  S
C606        C607   1.417       .  A
C607        C608   1.408       .  A
C607        N614   1.432       .  S
C608        C609   1.404       .  A
C608        H613   1.084       .  S
C609        C610   1.411       .  A
C610        N611   1.433       .  S
N611        H615   1.046       .  S
N611        H616   1.045       .  S
N614        H617   1.045       .  S
N614        H618   1.046       .  S
C619        C620   1.403       .  A
C619        C624   1.412       .  A
C619        H626   1.084       .  S
C620        C621   1.413       .  A
C621        C622   1.397       .  A
C621        N628   1.439       .  S
C622        C623   1.407       .  A
C622        H627   1.084       .  S
C623        C624   1.418       .  A
C624        N625   1.437       .  S
N625        H629   1.046       .  S
N625        H630   1.045       .  S
N628        H631   1.044       .  S
N628        H632   1.046       .  S
C633        C634   1.406       .  A
C633        C638   1.401       .  A
C633        H640   1.084       .  S
C634        C635   1.412       .  A
C635        C636   1.404       .  A
C635        N642   1.432       .  S
C636        C637   1.403       .  A
C636        H641   1.084       .  S
C637        C638   1.415       .  A
C638        N639   1.436       .  S
N639        H643   1.045       .  S
N639        H644   1.040       .  S
N642        H645   1.046       .  S
N642        H646   1.046       .  S
C647        C648   1.405       .  A
C647        C652   1.405       .  A
C647        H654   1.083       .  S
C648        C649   1.420       .  A
C649        C650   1.405       .  A
C649        N656   1.432       .  S
C650        C651   1.402       .  A
C650        H655   1.083       .  S
C651        C652   1.407       .  A
C652        N653   1.431       .  S
N653        H657   1.046       .  S
N653        H658   1.045       .  S
N656        H659   1.043       .  S
N656        H660   1.041       .  S
C661        C662   1.405       .  A
C661        C666   1.399       .  A
C661        H668   1.084       .  S
C662        C663   1.423       .  A
C663        C664   1.411       .  A
C663        N670   1.437       .  S
C664        C665   1.400       .  A
C664        H669   1.083       .  S
C665        C666   1.410       .  A
C666        N667   1.434       .  S
N667        H671   1.046       .  S
N667        H672   1.045       .  S
N670        H673   1.046       .  S
N670        H674   1.046       .  S
C675        C676   1.400       .  A
C675        C680   1.408       .  A
C675        H682   1.084       .  S
C676        C677   1.406       .  A
C677        C678   1.401       .  A
C677        N684   1.438       .  S
C678        C679   1.406       .  A
C678        H683   1.083       .  S
C679        C680   1.419       .  A
C680        N681   1.438       .  S
N681        H685   1.046       .  S
N681        H686   1.045       .  S
N684        H687   1.046       .  S
N684        H688   1.045       .  S
C689        C690   1.411       .  A
C689        C694   1.411       .  A
C689        H696   1.083       .  S
C690        C691   1.413       .  A
C691        C692   1.400       .  A
C691        N698   1.433       .  S
C692        C693   1.401       .  A
C692        H697   1.084       .  S
C693        C694   1.408       .  A
C694        N695   1.438       .  S
N695        H699   1.045       .  S
N695        H700   1.046       .  S
N698        H701   1.046       .  S
N698        H702   1.046       .  S
C703        C704   1.406       .  A
C703        C708   1.401       .  A
C703        H710   1.083       .  S
C704        C705   1.424       .  A
C705        C706   1.413       .  A
C705        N712   1.437       .  S
C706        C707   1.400       .  A
C706        H711   1.084       .  S
C707        C708   1.408       .  A
C708        N709   1.433       .  S
N709        H713   1.045       .  S
N709        H714   1.046       .  S
N712        H715   1.045       .  S
N712        H716   1.046       .  S
C717        C718   1.398       .  A
C717        C722   1.399       .  A
C717        H724   1.084       .  S
C718        C719   1.403       .  A
C719        C720   1.406       .  A
C719        N726   1.432       .  S
C720        C721   1.411       .  A
C720        H725   1.083       .  S
C721        C722   1.414       .  A
C722        N723   1.432       .  S
N723        H727   1.046       .  S
N723        H728   1.046       .  S
N726        H729   1.045       .  S
N726        H730   1.045       .  S
C731        C732   1.403       .  A
C731        C736   1.399       .  A
C731        H738   1.084       .  S
C732        C733   1.421       .  A
C733        C734   1.410       .  A
C733        N740   1.438       .  S
C734        C735   1.401       .  A
C734        H739   1.084       .  S
C735        C736   1.408       .  A
C736        N737   1.433       .  S
N737        H741   1.045       .  S
N737        H742   1.046       .  S
N740        H743   1.045       .  S
N740        H744   1.046       .  S
C745        C746   1.403       .  A
C745        C750   1.402       .  A
C745        H752   1.084       .  S
C746        C747   1.404       .  A
C747        C748   1.407       .  A
C747        N754   1.432       .  S
C748        C749   1.412       .  A
C748        H753   1.083       .  S
C749        C750   1.413       .  A
C750        N751   1.432       .  S
N751        H755   1.045       .  S
N751        H756   1.046       .  S
N754        H757   1.045       .  S
N754        H758   1.046       .  S
C759        C760   1.400       .  A
C759        C764   1.401       .  A
C759        H766   1.084       .  S
C760        C761   1.406       .  A
C761        C762   1.408       .  A
C761        N768   1.432       .  S
C762        C763   1.408       .  A
C762        H767   1.083       .  S
C763        C764   1.413       .  A
C764        N765   1.433       .  S
N765        H769   1.046       .  S
N765        H770   1.045       .  S
N768        H771   1.046       .  S
N768        H772   1.045       .  S
C773        C774   1.402       .  A
C773       C1634   1.406   1_554  A
C773        H780   1.084       .  S
C774        C775   1.416   1_655  A
C775       C1632   1.406   1_554  A
C775        N782   1.438       .  S
C776        C777   1.403   1_455  A
C776       C1631   1.407       .  A
C776        H781   1.083       .  S
C777        C778   1.417       .  A
C778       C1629   1.405       .  A
C778        N779   1.438       .  S
N779        H783   1.046       .  S
N779        H784   1.043       .  S
N782        H785   1.043       .  S
N782        H786   1.046   1_455  S
C787        C788   1.401       .  A
C787        C792   1.406       .  A
C787        H794   1.084       .  S
C788        C789   1.408       .  A
C789        C790   1.401       .  A
C789        N796   1.432       .  S
C790        C791   1.410       .  A
C790        H795   1.083       .  S
C791        C792   1.418       .  A
C792        N793   1.438       .  S
N793        H797   1.045       .  S
N793        H798   1.046       .  S
N796        H799   1.045       .  S
N796        H800   1.045       .  S
C801        C802   1.403       .  A
C801        C806   1.400       .  A
C801        H808   1.084       .  S
C802        C803   1.415       .  A
C803        C804   1.409       .  A
C803        N810   1.432       .  S
C804        C805   1.403       .  A
C804        H809   1.083       .  S
C805        C806   1.409       .  A
C806        N807   1.433       .  S
N807        H811   1.046       .  S
N807        H812   1.046       .  S
N810        H813   1.045       .  S
N810        H814   1.045       .  S
C815        C816   1.400       .  A
C815        C820   1.412       .  A
C815        H822   1.083       .  S
C816        C817   1.407       .  A
C817        C818   1.397       .  A
C817        N824   1.433       .  S
C818        C819   1.405       .  A
C818        H823   1.083       .  S
C819        C820   1.421       .  A
C820        N821   1.437       .  S
N821        H825   1.044       .  S
N821        H826   1.047       .  S
N824        H827   1.046       .  S
N824        H828   1.046       .  S
C829        C830   1.401       .  A
C829        C834   1.411       .  A
C829        H836   1.083       .  S
C830        C831   1.405       .  A
C831        C832   1.402       .  A
C831        N838   1.432       .  S
C832        C833   1.406       .  A
C832        H837   1.084       .  S
C833        C834   1.419       .  A
C834        N835   1.437       .  S
N835        H839   1.045       .  S
N835        H840   1.046       .  S
N838        H841   1.045       .  S
N838        H842   1.046       .  S
C843        C844   1.404       .  A
C843        C848   1.404       .  A
C843        H850   1.084       .  S
C844        C845   1.412       .  A
C845        C846   1.401       .  A
C845        N852   1.431       .  S
C846        C847   1.403       .  A
C846        H851   1.083       .  S
C847        C848   1.415       .  A
C848        N849   1.436       .  S
N849        H853   1.046       .  S
N849        H854   1.043       .  S
N852        H855   1.045       .  S
N852        H856   1.042       .  S
N857        C861   1.360       .  A
N857        C858   1.358       .  A
N857       C1700   1.443       .  S
C858        C859   1.381       .  A
C858       C1686   1.476       .  S
C859        C860   1.368       .  A
C859        H862   1.082       .  S
C860        C861   1.383       .  A
C860        H863   1.082       .  S
C861       C1672   1.479       .  S
N864        C868   1.359       .  A
N864        C865   1.358       .  A
N864       C1703   1.442       .  S
C865        C866   1.382       .  A
C865       C1661   1.479       .  S
C866        C867   1.370       .  A
C866        H869   1.082       .  S
C867        C868   1.380       .  A
C867        H870   1.082       .  S
C868       C1644   1.475       .  S
N871        C875   1.361       .  A
N871        C872   1.361   1_655  A
N871       C1633   1.446       .  S
C872        C873   1.381       .  A
C872       C1602   1.476       .  S
C873        C874   1.365   1_455  A
C873        H876   1.082       .  S
C874        C875   1.381       .  A
C874        H877   1.082       .  S
C875       C1616   1.476       .  S
N878        C882   1.361   1_655  A
N878        C879   1.362       .  A
N878       C1630   1.448       .  S
C879        C880   1.383       .  A
C879       C1591   1.481       .  S
C880        C881   1.368   1_655  A
C880        H883   1.082       .  S
C881        C882   1.380       .  A
C881        H884   1.082       .  S
C882       C1574   1.479       .  S
Zn885       O889   1.936       .  S
Zn885       O890   1.926       .  S
Zn885       O894   2.018       .  S
Zn885       O901   2.012       .  S
Zn886       O889   1.983       .  S
Zn886       O891   2.046       .  S
Zn886       O893   2.061       .  S
Zn886       O897   2.048       .  S
Zn887       O889   1.953       .  S
Zn887       O892   2.033       .  S
Zn887       O895   2.002       .  S
Zn887       O898   1.996       .  S
Zn888       O889   1.949       .  S
Zn888       O896   1.983       .  S
Zn888       O899   2.014       .  S
Zn888       O900   2.021       .  S
O890        C902   1.267       .  A
O891        C903   1.278       .  A
O892        C904   1.275       .  A
O893        C902   1.277       .  A
O894        C904   1.270       .  A
O895        C903   1.271       .  A
O896        C905   1.271       .  A
O897        C906   1.278       .  A
O898        C905   1.273       .  A
O899        C906   1.271       .  A
O900        C907   1.273       .  A
O901        C907   1.271       .  A
C902        C929   1.458       .  S
C903       C1605   1.492       .  S
C904       C1658   1.489       .  S
C906       C1560   1.498       .  S
C907       C1546   1.490       .  S
Zn908       O912   1.953       .  S
Zn908       O913   2.019       .  S
Zn908       O917   2.002       .  S
Zn908       O924   2.030       .  S
Zn909       O912   1.943       .  S
Zn909       O914   2.018       .  S
Zn909       O916   2.018       .  S
Zn909       O920   1.942       .  S
Zn910       O912   1.955       .  S
Zn910       O915   1.996       .  S
Zn910       O918   2.032       .  S
Zn910       O921   2.025       .  S
Zn911       O912   1.974       .  S
Zn911       O919   2.018       .  S
Zn911       O922   2.042       .  S
Zn911       O923   2.021       .  S
O913        C925   1.275       .  A
O914        C926   1.270       .  A
O915        C927   1.274       .  A
O916        C925   1.271       .  A
O917        C927   1.273       .  A
O918        C926   1.276       .  A
O919        C928   1.276       .  A
O920        C929   1.269       .  A
O921        C928   1.272       .  A
O922        C929   1.273       .  A
O923        C930   1.273       .  A
O924        C930   1.274       .  A
C925       C1675   1.493       .  S
C926       C1518   1.492       .  S
C928       C1535   1.493       .  S
C930       C1577   1.496       .  S
N931        C935   1.361       .  A
N931        C932   1.364       .  A
N931       C1504   1.447       .  S
C932        C933   1.384       .  A
C932       C1521   1.484       .  S
C933        C934   1.366       .  A
C933        H936   1.082       .  S
C934        C935   1.377       .  A
C934        H937   1.082       .  S
C935       C1493   1.475       .  S
N938        C942   1.358       .  A
N938        C939   1.360       .  A
N938       C1507   1.444       .  S
C939        C940   1.383       .  A
C939       C1476   1.480       .  S
C940        C941   1.369       .  A
C940        H943   1.082       .  S
C941        C942   1.380       .  A
C941        H944   1.082       .  S
C942       C1549   1.476       .  S
Zn945       O949   1.935       .  S
Zn945       O950   2.017       .  S
Zn945       O954   1.945       .  S
Zn945       O961   2.014       .  S
Zn946       O949   1.942       .  S
Zn946       O951   1.998       .  S
Zn946       O953   2.005       .  S
Zn946       O957   1.966       .  S
Zn947       O949   1.977       .  S
Zn947       O952   2.043       .  S
Zn947       O955   2.036       .  S
Zn947       O958   2.011       .  S
Zn948       O949   1.964       .  S
Zn948       O956   2.041       .  S
Zn948       O959   2.020       .  S
Zn948       O960   2.047       .  S
O950        C962   1.271       .  A
O951        C963   1.270       .  A
O952        C964   1.274       .  A
O953        C962   1.271       .  A
O954        C964   1.270       .  A
O955        C963   1.275       .  A
O956        C965   1.275       .  A
O957        C966   1.269       .  A
O958        C965   1.275       .  A
O959        C966   1.276       .  A
O960        C967   1.276       .  A
O961        C967   1.271       .  A
C962       C1619   1.486       .  S
C963       C1448   1.488       .  S
C965       C1479   1.495       .  S
C966        C985   1.455       .  S
C967       C1462   1.479       .  S
Zn968       O972   1.947       .  S
Zn968       O973   1.993       .  S
Zn968       O977   2.036       .  S
Zn968       O984   2.011       .  S
Zn969       O972   1.961       .  S
Zn969       O974   2.041       .  S
Zn969       O976   1.995       .  S
Zn969       O980   2.009       .  S
Zn970       O972   1.919       .  S
Zn970       O975   1.992       .  S
Zn970       O978   1.989       .  S
Zn970       O981   1.915       .  S
Zn971       O972   1.985       .  S
Zn971       O979   2.070       .  S
Zn971       O982   2.043       .  S
Zn971       O983   2.048       .  S
O973        C985   1.274       .  A
O974        C986   1.276       .  A
O975        C987   1.267       .  A
O976        C985   1.271       .  A
O977        C987   1.275       .  A
O978        C986   1.267       .  A
O979        C988   1.277       .  A
O980        C989   1.274       .  A
O981        C988   1.265       .  A
O982        C989   1.277       .  A
O983        C990   1.279       .  A
O984        C990   1.272       .  A
C986       C1434   1.491       .  S
C987       C1588   1.487       .  S
C989       C1490   1.492       .  S
C990       C1420   1.494       .  S
N991        C995   1.361       .  A
N991        C992   1.361       .  A
N991       C1409   1.446       .  S
C992        C993   1.380       .  A
C992       C1392   1.479       .  S
C993        C994   1.371       .  A
C993        H996   1.082       .  S
C994        C995   1.382       .  A
C994        H997   1.082       .  S
C995       C1423   1.482       .  S
N998       C1002   1.360       .  A
N998        C999   1.359       .  A
N998       C1406   1.446       .  S
C999       C1000   1.380       .  A
C999       C1451   1.476       .  S
C1000      C1001   1.370       .  A
C1000      H1003   1.082       .  S
C1001      C1002   1.382       .  A
C1001      H1004   1.082       .  S
C1002      C1378   1.479       .  S
N1005      C1009   1.359   1_565  A
N1005      C1006   1.360       .  A
N1005      C1367   1.444       .  S
C1006      C1007   1.380       .  A
C1006      C1465   1.478       .  S
C1007      C1008   1.370   1_565  A
C1007      H1010   1.082       .  S
C1008      C1009   1.380       .  A
C1008      H1011   1.082       .  S
C1009      C1353   1.477       .  S
N1012      C1016   1.358   1_565  A
N1012      C1013   1.358       .  A
N1012      C1364   1.445       .  S
C1013      C1014   1.381       .  A
C1013      C1437   1.475       .  S
C1014      C1015   1.371   1_565  A
C1014      H1017   1.082       .  S
C1015      C1016   1.381       .  A
C1015      H1018   1.082       .  S
C1016      C1339   1.473       .  S
Zn1019     O1023   1.970       .  S
Zn1019     O1024   2.029       .  S
Zn1019     O1028   2.013       .  S
Zn1019     O1035   2.038       .  S
Zn1020     O1023   1.960       .  S
Zn1020     O1025   2.008       .  S
Zn1020     O1027   2.027       .  S
Zn1020     O1031   2.030       .  S
Zn1021     O1023   1.957       .  S
Zn1021     O1026   2.016       .  S
Zn1021     O1029   1.998       .  S
Zn1021     O1032   2.023       .  S
Zn1022     O1023   1.950       .  S
Zn1022     O1030   2.023       .  S
Zn1022     O1033   2.009       .  S
Zn1022     O1034   1.971       .  S
O1024      C1036   1.274       .  A
O1025      C1037   1.272       .  A
O1026      C1038   1.272       .  A
O1027      C1036   1.273       .  A
O1028      C1038   1.273       .  A
O1029      C1037   1.271       .  A
O1030      C1039   1.272       .  A
O1031      C1040   1.276       .  A
O1032      C1039   1.275       .  A
O1033      C1040   1.272       .  A
O1034      C1041   1.269       .  A
O1035      C1041   1.275       .  A
C1036      C1350   1.487       .  S
C1038      C1322   1.485       .  S
C1039      C1381   1.486       .  S
C1040      C1311   1.489       .  S
C1041      C1064   1.450       .  S
Zn1042     O1046   1.957       .  S
Zn1042     O1047   2.025       .  S
Zn1042     O1051   2.015       .  S
Zn1042     O1058   2.009       .  S
Zn1043     O1046   1.970       .  S
Zn1043     O1048   2.038       .  S
Zn1043     O1050   2.027       .  S
Zn1043     O1054   2.027       .  S
Zn1044     O1046   1.951       .  S
Zn1044     O1049   2.007       .  S
Zn1044     O1052   1.965       .  S
Zn1044     O1055   2.024       .  S
Zn1045     O1046   1.951       .  S
Zn1045     O1053   2.015       .  S
Zn1045     O1056   2.020       .  S
Zn1045     O1057   1.997       .  S
O1047      C1059   1.273       .  A
O1048      C1060   1.275       .  A
O1049      C1061   1.270       .  A
O1050      C1059   1.275       .  A
O1051      C1061   1.274       .  A
O1052      C1060   1.269       .  A
O1053      C1062   1.273       .  A
O1054      C1063   1.274       .  A
O1055      C1062   1.273       .  A
O1056      C1063   1.273       .  A
O1057      C1064   1.271       .  A
O1058      C1064   1.273       .  A
C1059      C1395   1.487       .  S
C1061      C1294   1.479       .  S
C1062      C1336   1.492       .  S
C1063      C1280   1.482       .  S
N1065      C1069   1.361       .  A
N1065      C1066   1.362       .  A
N1065      C1266   1.448       .  S
C1066      C1067   1.382       .  A
C1066      C1252   1.481       .  S
C1067      C1068   1.368       .  A
C1067      H1070   1.082       .  S
C1068      C1069   1.380       .  A
C1068      H1071   1.082       .  S
C1069      C1283   1.477       .  S
N1072      C1076   1.363       .  A
N1072      C1073   1.361       .  A
N1072      C1269   1.448       .  S
C1073      C1074   1.379       .  A
C1073      C1308   1.476       .  S
C1074      C1075   1.366       .  A
C1074      H1077   1.082       .  S
C1075      C1076   1.382       .  A
C1075      H1078   1.083       .  S
C1076      C1238   1.482       .  S
N1079      C1083   1.362   1_545  A
N1079      C1080   1.361       .  A
N1079      C1224   1.444       .  S
C1080      C1081   1.381       .  A
C1080      C1210   1.480       .  S
C1081      C1082   1.368   1_545  A
C1081      H1084   1.082       .  S
C1082      C1083   1.382       .  A
C1082      H1085   1.082       .  S
C1083      C1563   1.483       .  S
N1086      C1090   1.361       .  A
N1086      C1087   1.358   1_545  A
N1086      C1227   1.446       .  S
C1087      C1088   1.381       .  A
C1087      C1532   1.476       .  S
C1088      C1089   1.367   1_565  A
C1088      H1091   1.082       .  S
C1089      C1090   1.382       .  A
C1089      H1092   1.083       .  S
C1090      C1196   1.477       .  S
N1093      C1097   1.357       .  A
N1093      C1094   1.357   1_455  A
N1093      C1182   1.439       .  S
C1094      C1095   1.380       .  A
C1094      C1325   1.476       .  S
C1095      C1096   1.372   1_655  A
C1095      H1098   1.082       .  S
C1096      C1097   1.382       .  A
C1096      H1099   1.082       .  S
C1097      C1168   1.480       .  S
N1100      C1104   1.361       .  A
N1100      C1101   1.358   1_455  A
N1100      C1185   1.446       .  S
C1101      C1102   1.382       .  A
C1101      C1297   1.475       .  S
C1102      C1103   1.367   1_655  A
C1102      H1105   1.083       .  S
C1103      C1104   1.381       .  A
C1103      H1106   1.082       .  S
C1104      C1154   1.475       .  S
Zn1107     O1111   1.932       .  S
Zn1107     O1112   2.017       .  S
Zn1107     O1116   1.942       .  S
Zn1107     O1123   2.014       .  S
Zn1108     O1111   1.955       .  S
Zn1108     O1113   2.025       .  S
Zn1108     O1115   2.043       .  S
Zn1108     O1119   1.994       .  S
Zn1109     O1111   1.973       .  S
Zn1109     O1114   2.030       .  S
Zn1109     O1117   2.009       .  S
Zn1109     O1120   2.011       .  S
Zn1110     O1111   1.959       .  S
Zn1110     O1118   2.023       .  S
Zn1110     O1121   1.993       .  S
Zn1110     O1122   2.036       .  S
O1112      C1124   1.271       .  A
O1113      C1125   1.274       .  A
O1114      C1126   1.273       .  A
O1115      C1124   1.277       .  A
O1116      C1126   1.269       .  A
O1117      C1125   1.273       .  A
O1118      C1127   1.273       .  A
O1119      C1128   1.274       .  A
O1120      C1127   1.272       .  A
O1121      C1128   1.273       .  A
O1122      C1129   1.276       .  A
O1123      C1129   1.271       .  A
C1124      C1171   1.495       .  S
C1125      C1647   1.491       .  S
C1127      C1241   1.486       .  S
C1128      C1150   1.455       .  S
C1129      C1213   1.488       .  S
Zn1130     O1134   1.931       .  S
Zn1130     O1135   1.942       .  S
Zn1130     O1139   2.008       .  S
Zn1130     O1146   2.007       .  S
Zn1131     O1134   1.974       .  S
Zn1131     O1136   2.024       .  S
Zn1131     O1138   2.051       .  S
Zn1131     O1142   2.031       .  S
Zn1132     O1134   1.952       .  S
Zn1132     O1137   2.018       .  S
Zn1132     O1140   2.011       .  S
Zn1132     O1143   1.989       .  S
Zn1133     O1134   1.951       .  S
Zn1133     O1141   2.001       .  S
Zn1133     O1144   2.018       .  S
Zn1133     O1145   2.026       .  S
O1135      C1147   1.268       .  A
O1136      C1148   1.276       .  A
O1137      C1149   1.273       .  A
O1138      C1147   1.275       .  A
O1139      C1149   1.271       .  A
O1140      C1148   1.271       .  A
O1141      C1150   1.274       .  A
O1142      C1151   1.277       .  A
O1143      C1150   1.272       .  A
O1144      C1151   1.273       .  A
O1145      C1152   1.275       .  A
O1146      C1152   1.270       .  A
C1148      C1689   1.488       .  S
C1149      C1157   1.482       .  S
C1151      C1255   1.495       .  S
C1152      C1199   1.491       .  S
C1153      C1154   1.404       .  A
C1153      C1158   1.400       .  A
C1153      H1160   1.084       .  S
C1154      C1155   1.416       .  A
C1155      C1156   1.403       .  A
C1155      N1162   1.438       .  S
C1156      C1157   1.406       .  A
C1156      H1161   1.084       .  S
C1157      C1158   1.409       .  A
C1158      N1159   1.433       .  S
N1159      H1163   1.046       .  S
N1159      H1164   1.046       .  S
N1162      H1165   1.041       .  S
N1162      H1166   1.046       .  S
C1167      C1168   1.401       .  A
C1167      C1172   1.412       .  A
C1167      H1174   1.084       .  S
C1168      C1169   1.414       .  A
C1169      C1170   1.401       .  A
C1169      N1176   1.440       .  S
C1170      C1171   1.405       .  A
C1170      H1175   1.084       .  S
C1171      C1172   1.421       .  A
C1172      N1173   1.438       .  S
N1173      H1177   1.046       .  S
N1173      H1178   1.045       .  S
N1176      H1179   1.044       .  S
N1176      H1180   1.045       .  S
C1181      C1182   1.403       .  A
C1181      H1188   1.083       .  S
C1182      C1183   1.416   1_455  A
C1183      N1190   1.438       .  S
C1184      C1185   1.402       .  A
C1184      H1189   1.083   1_455  S
C1185      C1186   1.411       .  A
C1186      N1187   1.431       .  S
N1187      H1191   1.044       .  S
N1187      H1192   1.045   1_455  S
N1190      H1193   1.042       .  S
N1190      H1194   1.046   1_655  S
C1195      C1196   1.399       .  A
C1195      C1200   1.410       .  A
C1195      H1202   1.084       .  S
C1196      C1197   1.406       .  A
C1197      C1198   1.399       .  A
C1197      N1204   1.433       .  S
C1198      C1199   1.405       .  A
C1198      H1203   1.084       .  S
C1199      C1200   1.422       .  A
C1200      N1201   1.438       .  S
N1201      H1205   1.046       .  S
N1201      H1206   1.045       .  S
N1204      H1207   1.046       .  S
N1204      H1208   1.045       .  S
C1209      C1210   1.401       .  A
C1209      C1214   1.410       .  A
C1209      H1216   1.084       .  S
C1210      C1211   1.409       .  A
C1211      C1212   1.406       .  A
C1211      N1218   1.438       .  S
C1212      C1213   1.405       .  A
C1212      H1217   1.084       .  S
C1213      C1214   1.417       .  A
C1214      N1215   1.438       .  S
N1215      H1219   1.046       .  S
N1215      H1220   1.046       .  S
N1218      H1221   1.046       .  S
N1218      H1222   1.046       .  S
C1223      C1224   1.405       .  A
C1223      H1230   1.083       .  S
C1224      C1225   1.415       .  A
C1225      N1232   1.437   1_545  S
C1226      C1227   1.404   1_565  A
C1226      H1231   1.083       .  S
C1227      C1228   1.406       .  A
C1228      N1229   1.431       .  S
N1229      H1233   1.046       .  S
N1229      H1234   1.046       .  S
N1232      H1235   1.043       .  S
N1232      H1236   1.045   1_565  S
C1237      C1238   1.403       .  A
C1237      C1242   1.400       .  A
C1237      H1244   1.084       .  S
C1238      C1239   1.414       .  A
C1239      C1240   1.403       .  A
C1239      N1246   1.431       .  S
C1240      C1241   1.406       .  A
C1240      H1245   1.084       .  S
C1241      C1242   1.412       .  A
C1242      N1243   1.433       .  S
N1243      H1247   1.045       .  S
N1243      H1248   1.046       .  S
N1246      H1249   1.046       .  S
N1246      H1250   1.042       .  S
C1251      C1252   1.399       .  A
C1251      C1256   1.407       .  A
C1251      H1258   1.084       .  S
C1252      C1253   1.411       .  A
C1253      C1254   1.404       .  A
C1253      N1260   1.438       .  S
C1254      C1255   1.407       .  A
C1254      H1259   1.083       .  S
C1255      C1256   1.419       .  A
C1256      N1257   1.432       .  S
N1257      H1261   1.046       .  S
N1257      H1262   1.046       .  S
N1260      H1263   1.043       .  S
N1260      H1264   1.049       .  S
C1265      C1266   1.402       .  A
C1265      C1270   1.403       .  A
C1265      H1272   1.083       .  S
C1266      C1267   1.410       .  A
C1267      C1268   1.408       .  A
C1267      N1274   1.430       .  S
C1268      C1269   1.404       .  A
C1268      H1273   1.083       .  S
C1269      C1270   1.417       .  A
C1270      N1271   1.431       .  S
N1271      H1275   1.041       .  S
N1271      H1276   1.045       .  S
N1274      H1277   1.045       .  S
N1274      H1278   1.046       .  S
C1279      C1280   1.402       .  A
C1279      C1284   1.401       .  A
C1279      H1286   1.084       .  S
C1280      C1281   1.413       .  A
C1281      C1282   1.409       .  A
C1281      N1288   1.438       .  S
C1282      C1283   1.402       .  A
C1282      H1287   1.084       .  S
C1283      C1284   1.416       .  A
C1284      N1285   1.439       .  S
N1285      H1289   1.045       .  S
N1285      H1290   1.044       .  S
N1288      H1291   1.046       .  S
N1288      H1292   1.045       .  S
C1293      C1294   1.401       .  A
C1293      C1298   1.396       .  A
C1293      H1300   1.084       .  S
C1294      C1295   1.415       .  A
C1295      C1296   1.409       .  A
C1295      N1302   1.438       .  S
C1296      C1297   1.402       .  A
C1296      H1301   1.082       .  S
C1297      C1298   1.416       .  A
C1298      N1299   1.439       .  S
N1299      H1303   1.045       .  S
N1299      H1304   1.044       .  S
N1302      H1305   1.046       .  S
N1302      H1306   1.045       .  S
C1307      C1308   1.402       .  A
C1307      C1312   1.402       .  A
C1307      H1314   1.084       .  S
C1308      C1309   1.409       .  A
C1309      C1310   1.402       .  A
C1309      N1316   1.432       .  S
C1310      C1311   1.410       .  A
C1310      H1315   1.084       .  S
C1311      C1312   1.412       .  A
C1312      N1313   1.433       .  S
N1313      H1317   1.045       .  S
N1313      H1318   1.046       .  S
N1316      H1319   1.045       .  S
N1316      H1320   1.044       .  S
C1321      C1322   1.406       .  A
C1321      C1326   1.401       .  A
C1321      H1328   1.084       .  S
C1322      C1323   1.412       .  A
C1323      C1324   1.402       .  A
C1323      N1330   1.433       .  S
C1324      C1325   1.401       .  A
C1324      H1329   1.084       .  S
C1325      C1326   1.412       .  A
C1326      N1327   1.432       .  S
N1327      H1331   1.045       .  S
N1327      H1332   1.043       .  S
N1330      H1333   1.045       .  S
N1330      H1334   1.046       .  S
C1335      C1336   1.412       .  A
C1335      C1340   1.408       .  A
C1335      H1342   1.083       .  S
C1336      C1337   1.415       .  A
C1337      C1338   1.399       .  A
C1337      N1344   1.433       .  S
C1338      C1339   1.399       .  A
C1338      H1343   1.084       .  S
C1339      C1340   1.402       .  A
C1340      N1341   1.432       .  S
N1341      H1345   1.045       .  S
N1341      H1346   1.046       .  S
N1344      H1347   1.046       .  S
N1344      H1348   1.046       .  S
C1349      C1350   1.404       .  A
C1349      C1354   1.403       .  A
C1349      H1356   1.084       .  S
C1350      C1351   1.418       .  A
C1351      C1352   1.402       .  A
C1351      N1358   1.433       .  S
C1352      C1353   1.401       .  A
C1352      H1357   1.084       .  S
C1353      C1354   1.416       .  A
C1354      N1355   1.438       .  S
N1355      H1359   1.046       .  S
N1355      H1360   1.044       .  S
N1358      H1361   1.046       .  S
N1358      H1362   1.044       .  S
C1363      C1364   1.404       .  A
C1363      H1370   1.083       .  S
C1364      C1365   1.410   1_565  A
C1365      N1372   1.436       .  S
C1366      C1367   1.404   1_545  A
C1366      H1371   1.083       .  S
C1367      C1368   1.411       .  A
C1368      N1369   1.435       .  S
N1369      H1373   1.046       .  S
N1369      H1374   1.046       .  S
N1372      H1375   1.044       .  S
N1372      H1376   1.045       .  S
C1377      C1378   1.402       .  A
C1377      C1382   1.410       .  A
C1377      H1384   1.084       .  S
C1378      C1379   1.415       .  A
C1379      C1380   1.399       .  A
C1379      N1386   1.439       .  S
C1380      C1381   1.404       .  A
C1380      H1385   1.084       .  S
C1381      C1382   1.416       .  A
C1382      N1383   1.438       .  S
N1383      H1387   1.046       .  S
N1383      H1388   1.045       .  S
N1386      H1389   1.044       .  S
N1386      H1390   1.046       .  S
C1391      C1392   1.403       .  A
C1391      C1396   1.407       .  A
C1391      H1398   1.084       .  S
C1392      C1393   1.416       .  A
C1393      C1394   1.402       .  A
C1393      N1400   1.439       .  S
C1394      C1395   1.404       .  A
C1394      H1399   1.084       .  S
C1395      C1396   1.412       .  A
C1396      N1397   1.432       .  S
N1397      H1401   1.045       .  S
N1397      H1402   1.046       .  S
N1400      H1403   1.043       .  S
N1400      H1404   1.046       .  S
C1405      C1406   1.403       .  A
C1405      C1410   1.408       .  A
C1405      H1412   1.083       .  S
C1406      C1407   1.412       .  A
C1407      C1408   1.407       .  A
C1407      N1414   1.437       .  S
C1408      C1409   1.403       .  A
C1408      H1413   1.082       .  S
C1409      C1410   1.412       .  A
C1410      N1411   1.436       .  S
N1411      H1415   1.045       .  S
N1411      H1416   1.045       .  S
N1414      H1417   1.045       .  S
N1414      H1418   1.046       .  S
C1419      C1420   1.405       .  A
C1419      C1424   1.402       .  A
C1419      H1426   1.084       .  S
C1420      C1421   1.419       .  A
C1421      C1422   1.407       .  A
C1421      N1428   1.432       .  S
C1422      C1423   1.400       .  A
C1422      H1427   1.084       .  S
C1423      C1424   1.417       .  A
C1424      N1425   1.439       .  S
N1425      H1429   1.046       .  S
N1425      H1430   1.043       .  S
N1428      H1431   1.046       .  S
N1428      H1432   1.046       .  S
C1433      C1434   1.405       .  A
C1433      C1438   1.402       .  A
C1433      H1440   1.084       .  S
C1434      C1435   1.418       .  A
C1435      C1436   1.404       .  A
C1435      N1442   1.433       .  S
C1436      C1437   1.398       .  A
C1436      H1441   1.084       .  S
C1437      C1438   1.417       .  A
C1438      N1439   1.439       .  S
N1439      H1443   1.046       .  S
N1439      H1444   1.042       .  S
N1442      H1445   1.046       .  S
N1442      H1446   1.046       .  S
C1447      C1448   1.409       .  A
C1447      C1452   1.400       .  A
C1447      H1454   1.084       .  S
C1448      C1449   1.412       .  A
C1449      C1450   1.404       .  A
C1449      N1456   1.432       .  S
C1450      C1451   1.403       .  A
C1450      H1455   1.084       .  S
C1451      C1452   1.409       .  A
C1452      N1453   1.432       .  S
N1453      H1457   1.044       .  S
N1453      H1458   1.046       .  S
N1456      H1459   1.046       .  S
N1456      H1460   1.046       .  S
C1461      C1462   1.402       .  A
C1461      C1466   1.403       .  A
C1461      H1468   1.084       .  S
C1462      C1463   1.412       .  A
C1463      C1464   1.402       .  A
C1463      N1470   1.432       .  S
C1464      C1465   1.403       .  A
C1464      H1469   1.084       .  S
C1465      C1466   1.419       .  A
C1466      N1467   1.439       .  S
N1467      H1471   1.046       .  S
N1467      H1472   1.043       .  S
N1470      H1473   1.045       .  S
N1470      H1474   1.045       .  S
C1475      C1476   1.403       .  A
C1475      C1480   1.413       .  A
C1475      H1482   1.084       .  S
C1476      C1477   1.414       .  A
C1477      C1478   1.398       .  A
C1477      N1484   1.440       .  S
C1478      C1479   1.407       .  A
C1478      H1483   1.084       .  S
C1479      C1480   1.419       .  A
C1480      N1481   1.437       .  S
N1481      H1485   1.045       .  S
N1481      H1486   1.046       .  S
N1484      H1487   1.044       .  S
N1484      H1488   1.046       .  S
C1489      C1490   1.409       .  A
C1489      C1494   1.402       .  A
C1489      H1496   1.084       .  S
C1490      C1491   1.413       .  A
C1491      C1492   1.404       .  A
C1491      N1498   1.432       .  S
C1492      C1493   1.402       .  A
C1492      H1497   1.084       .  S
C1493      C1494   1.413       .  A
C1494      N1495   1.438       .  S
N1495      H1499   1.045       .  S
N1495      H1500   1.043       .  S
N1498      H1501   1.046       .  S
N1498      H1502   1.046       .  S
C1503      C1504   1.405       .  A
C1503      C1508   1.407       .  A
C1503      H1510   1.083       .  S
C1504      C1505   1.417       .  A
C1505      C1506   1.404       .  A
C1505      N1512   1.431       .  S
C1506      C1507   1.402       .  A
C1506      H1511   1.083       .  S
C1507      C1508   1.407       .  A
C1508      N1509   1.431       .  S
N1509      H1513   1.045       .  S
N1509      H1514   1.045       .  S
N1512      H1515   1.044       .  S
N1512      H1516   1.042       .  S
C1517      C1518   1.403       .  A
C1517      C1522   1.398       .  A
C1517      H1524   1.084       .  S
C1518      C1519   1.421       .  A
C1519      C1520   1.414       .  A
C1519      N1526   1.437       .  S
C1520      C1521   1.402       .  A
C1520      H1525   1.083       .  S
C1521      C1522   1.409       .  A
C1522      N1523   1.433       .  S
N1523      H1527   1.046       .  S
N1523      H1528   1.046       .  S
N1526      H1529   1.045       .  S
N1526      H1530   1.046       .  S
C1531      C1532   1.401       .  A
C1531      C1536   1.411       .  A
C1531      H1538   1.084       .  S
C1532      C1533   1.406       .  A
C1533      C1534   1.400       .  A
C1533      N1540   1.438       .  S
C1534      C1535   1.406       .  A
C1534      H1539   1.083       .  S
C1535      C1536   1.421       .  A
C1536      N1537   1.437       .  S
N1537      H1541   1.046       .  S
N1537      H1542   1.045       .  S
N1540      H1543   1.047       .  S
N1540      H1544   1.044       .  S
C1545      C1546   1.410       .  A
C1545      C1550   1.410       .  A
C1545      H1552   1.083       .  S
C1546      C1547   1.413       .  A
C1547      C1548   1.400       .  A
C1547      N1554   1.433       .  S
C1548      C1549   1.400       .  A
C1548      H1553   1.084       .  S
C1549      C1550   1.408       .  A
C1550      N1551   1.438       .  S
N1551      H1555   1.045       .  S
N1551      H1556   1.046       .  S
N1554      H1557   1.046       .  S
N1554      H1558   1.046       .  S
C1559      C1560   1.405       .  A
C1559      C1564   1.401       .  A
C1559      H1566   1.083       .  S
C1560      C1561   1.424       .  A
C1561      C1562   1.414       .  A
C1561      N1568   1.438       .  S
C1562      C1563   1.400       .  A
C1562      H1567   1.084       .  S
C1563      C1564   1.409       .  A
C1564      N1565   1.433       .  S
N1565      H1569   1.046       .  S
N1565      H1570   1.046       .  S
N1568      H1571   1.046       .  S
N1568      H1572   1.045       .  S
C1573      C1574   1.401       .  A
C1573      C1578   1.402       .  A
C1573      H1580   1.084       .  S
C1574      C1575   1.404       .  A
C1575      C1576   1.408       .  A
C1575      N1582   1.431       .  S
C1576      C1577   1.411       .  A
C1576      H1581   1.083       .  S
C1577      C1578   1.416       .  A
C1578      N1579   1.433       .  S
N1579      H1583   1.046       .  S
N1579      H1584   1.046       .  S
N1582      H1585   1.045       .  S
N1582      H1586   1.045       .  S
C1587      C1588   1.403       .  A
C1587      C1592   1.401       .  A
C1587      H1594   1.084       .  S
C1588      C1589   1.420       .  A
C1589      C1590   1.408       .  A
C1589      N1596   1.438       .  S
C1590      C1591   1.400       .  A
C1590      H1595   1.083       .  S
C1591      C1592   1.409       .  A
C1592      N1593   1.433       .  S
N1593      H1597   1.046       .  S
N1593      H1598   1.046       .  S
N1596      H1599   1.045       .  S
N1596      H1600   1.046       .  S
C1601      C1602   1.403       .  A
C1601      C1606   1.402       .  A
C1601      H1608   1.084       .  S
C1602      C1603   1.404       .  A
C1603      C1604   1.407       .  A
C1603      N1610   1.432       .  S
C1604      C1605   1.412       .  A
C1604      H1609   1.083       .  S
C1605      C1606   1.412       .  A
C1606      N1607   1.432       .  S
N1607      H1611   1.045       .  S
N1607      H1612   1.046       .  S
N1610      H1613   1.045       .  S
N1610      H1614   1.046       .  S
C1615      C1616   1.401       .  A
C1615      C1620   1.400       .  A
C1615      H1622   1.084       .  S
C1616      C1617   1.407       .  A
C1617      C1618   1.406       .  A
C1617      N1624   1.431       .  S
C1618      C1619   1.408       .  A
C1618      H1623   1.084       .  S
C1619      C1620   1.413       .  A
C1620      N1621   1.433       .  S
N1621      H1625   1.045       .  S
N1621      H1626   1.046       .  S
N1624      H1627   1.046       .  S
N1624      H1628   1.045       .  S
C1629      C1630   1.403       .  A
C1629      H1636   1.084       .  S
C1630      C1631   1.419   1_655  A
C1631      N1638   1.438       .  S
C1632      C1633   1.403   1_455  A
C1632      H1637   1.083       .  S
C1633      C1634   1.418       .  A
C1634      N1635   1.438       .  S
N1635      H1639   1.046       .  S
N1635      H1640   1.042       .  S
N1638      H1641   1.042       .  S
N1638      H1642   1.046   1_455  S
C1643      C1644   1.401       .  A
C1643      C1648   1.405       .  A
C1643      H1650   1.084       .  S
C1644      C1645   1.409       .  A
C1645      C1646   1.401       .  A
C1645      N1652   1.432       .  S
C1646      C1647   1.408       .  A
C1646      H1651   1.083       .  S
C1647      C1648   1.418       .  A
C1648      N1649   1.438       .  S
N1649      H1653   1.046       .  S
N1649      H1654   1.046       .  S
N1652      H1655   1.044       .  S
N1652      H1656   1.045       .  S
C1657      C1658   1.405       .  A
C1657      C1662   1.401       .  A
C1657      H1664   1.084       .  S
C1658      C1659   1.419       .  A
C1659      C1660   1.412       .  A
C1659      N1666   1.437       .  S
C1660      C1661   1.401       .  A
C1660      H1665   1.084       .  S
C1661      C1662   1.406       .  A
C1662      N1663   1.433       .  S
N1663      H1667   1.046       .  S
N1663      H1668   1.045       .  S
N1666      H1669   1.045       .  S
N1666      H1670   1.046       .  S
C1671      C1672   1.402       .  A
C1671      C1676   1.414       .  A
C1671      H1678   1.084       .  S
C1672      C1673   1.406       .  A
C1673      C1674   1.395       .  A
C1673      N1680   1.433       .  S
C1674      C1675   1.404       .  A
C1674      H1679   1.083       .  S
C1675      C1676   1.423       .  A
C1676      N1677   1.437       .  S
N1677      H1681   1.046       .  S
N1677      H1682   1.045       .  S
N1680      H1683   1.046       .  S
N1680      H1684   1.046       .  S
C1685      C1686   1.400       .  A
C1685      C1690   1.410       .  A
C1685      H1692   1.083       .  S
C1686      C1687   1.404       .  A
C1687      C1688   1.398       .  A
C1687      N1694   1.433       .  S
C1688      C1689   1.405       .  A
C1688      H1693   1.084       .  S
C1689      C1690   1.420       .  A
C1690      N1691   1.438       .  S
N1691      H1695   1.046       .  S
N1691      H1696   1.045       .  S
N1694      H1697   1.046       .  S
N1694      H1698   1.045       .  S
C1699      C1700   1.404       .  A
C1699      C1704   1.404       .  A
C1699      H1706   1.084       .  S
C1700      C1701   1.412       .  A
C1701      C1702   1.401       .  A
C1701      N1708   1.431       .  S
C1702      C1703   1.403       .  A
C1702      H1707   1.083       .  S
C1703      C1704   1.416       .  A
C1704      N1705   1.436       .  S
N1705      H1709   1.046       .  S
N1705      H1710   1.042       .  S
N1708      H1711   1.045       .  S
N1708      H1712   1.042       .  S
