geometry optimzed in LAMMPS
_audit_creation_date              2020-12-01 
_audit_creation_method            'lammps2cif' 
_symmetry_space_group_name_H-M    'P1' 
_symmetry_Int_Tables_number       1 
_symmetry_cell_setting            triclinic 
loop_ 
_symmetry_equiv_pos_as_xyz 
  x,y,z 
_cell_length_a                    77.21630638 
_cell_length_b                    77.40454527989635 
_cell_length_c                    26.106315847443216 
_cell_angle_alpha                 90.39731677368451 
_cell_angle_beta                  89.11361624271966 
_cell_angle_gamma                 121.58361357140612 
loop_ 
_atom_site_label 
_atom_site_type_symbol 
_atom_site_fract_x 
_atom_site_fract_y 
_atom_site_fract_z 
_atom_site_charge 
N1          N  0.50791875  0.99388991  0.17886731    -0.02800
C2          C  0.52129724  0.98892462  0.19769564    -0.00200
C3          C  0.51131264  0.97234515  0.23003533    -0.23100
C4          C  0.49245719  0.96904705  0.23869318    -0.23300
C5          C  0.49112490  0.98322349  0.21005792    -0.00300
H6          H  0.51830956  0.96638782  0.25404737     0.13500
H7          H  0.48224212  0.95964296  0.26916008     0.13500
N8          N  0.50489556  0.99317166  0.12465076    -0.02800
C9          C  0.51020327  0.98213147  0.09381477    -0.00200
C10         C  0.49444237  0.96952942  0.06175117    -0.23100
C11         C  0.47953258  0.97356955  0.06976178    -0.23300
C12         C  0.48664442  0.98901267  0.10540395    -0.00300
H13         H  0.49487340  0.96079887  0.02977444     0.13500
H14         H  0.46667439  0.96858584  0.04485564     0.13500
N15         N  0.52537558  0.51378317  0.12976642    -0.02800
C16         C  0.54419715  0.53065516  0.12972510    -0.00200
C17         C  0.55818617  0.52468338  0.13482017    -0.23100
C18         C  0.54733725  0.50401785  0.14322420    -0.23300
C19         C  0.52696676  0.49773952  0.14241461    -0.00300
H20         H  0.57419637  0.53453616  0.14282207     0.13500
H21         H  0.55361872  0.49540766  0.15776215     0.13500
N22         N  0.50354803  0.51358713  0.06243709    -0.02800
C23         C  0.48314347  0.50487979  0.05834294    -0.00200
C24         C  0.47394750  0.49858808  0.10613084    -0.23100
C25         C  0.48920198  0.50354898  0.14056968    -0.23300
C26         C  0.50718953  0.51258094  0.11259315    -0.00300
H27         H  0.45779000  0.48994611  0.11444137     0.13500
H28         H  0.48717674  0.49939782  0.18067402     0.13500
N29         N  0.00840689  0.50846433  0.10277550    -0.02800
C30         C  0.02275125  0.50347194  0.09679682    -0.00200
C31         C  0.04164120  0.52109486  0.10084008    -0.23100
C32         C  0.03849997  0.53699760  0.09727371    -0.23300
C33         C  0.01770675  0.52854626  0.09269885    -0.00300
H34         H  0.05608537  0.52244043  0.09259904     0.13500
H35         H  0.05031068  0.55224040  0.08668902     0.13500
N36         N  0.99236673  0.49885284  0.13974185    -0.02800
C37         C  0.97821752  0.50404848  0.14711056    -0.00200
C38         C  0.95924051  0.48639207  0.14889001    -0.23100
C39         C  0.96245483  0.47054818  0.15257644    -0.23300
C40         C  0.98331539  0.47893861  0.15168560    -0.00300
H41         H  0.94517630  0.48537556  0.16008723     0.13500
H42         H  0.95111392  0.45557733  0.16629679     0.13500
C43         C  0.01210402  0.82285811  0.63659451     0.80900
N44         N  0.99430843  0.82260981  0.63656074    -0.77400
C45         C  0.99435997  0.84022864  0.63564791     0.83400
N46         N  0.01235885  0.85820282  0.63435105    -0.77300
C47         C  0.03026436  0.85886133  0.63531084     0.83500
N48         N  0.02999384  0.84113633  0.63666898    -0.79100
C49         C  0.83072008  0.82837772  0.61806731     0.80900
N50         N  0.84828830  0.82837266  0.61731170    -0.77400
C51         C  0.86665516  0.84599889  0.61863749     0.83400
N52         N  0.86739667  0.86398760  0.62052607    -0.77300
C53         C  0.84990625  0.86429388  0.62023503     0.83500
N54         N  0.83178464  0.84643342  0.61930921    -0.79100
N55         N  0.61809849  0.62771369  0.50018043    -0.26600
N56         N  0.60289884  0.61100560  0.52097034    -0.34500
C57         C  0.59072441  0.59897013  0.48348541     0.01700
C58         C  0.59865719  0.60866496  0.43697970     0.07800
C59         C  0.61592405  0.62692795  0.44904834    -0.05300
H60         H  0.57709089  0.58427471  0.48963653     0.08400
H61         H  0.62643080  0.63852438  0.42258645     0.09600
Cu62       Cu  0.59967518  0.60573659  0.59952371     0.44200
Cu63       Cu  0.64150686  0.65010862  0.54247463     0.42000
Cu64       Cu  0.63872392  0.64566296  0.68088912     0.43900
N65         N  0.59932830  0.60444469  0.67913333    -0.34000
N66         N  0.61319977  0.61886614  0.70871214    -0.28200
C67         C  0.60820358  0.61313699  0.75803839    -0.04300
C68         C  0.59046824  0.59406653  0.75981678     0.07900
C69         C  0.58528412  0.58923584  0.70882370     0.01700
H70         H  0.61674892  0.62244000  0.79015265     0.09300
H71         H  0.57229202  0.57549445  0.69416477     0.08400
N72         N  0.66290701  0.66998253  0.64090618    -0.35400
N73         N  0.66369651  0.67097091  0.59035572    -0.27600
C74         C  0.68084887  0.68786681  0.57520552    -0.02800
C75         C  0.69144042  0.69856234  0.61810496     0.05800
C76         C  0.67969566  0.68655786  0.65925620     0.03900
H77         H  0.68529175  0.69178431  0.53556733     0.09000
H78         H  0.68298971  0.68974644  0.69946693     0.07800
N79         N  0.99962776  0.61460030  0.50561624    -0.26600
N80         N  0.99838190  0.59854231  0.52709223    -0.34500
C81         C  0.99796277  0.58625858  0.48972011     0.01700
C82         C  0.99870112  0.59486542  0.44269152     0.07800
C83         C  0.99974730  0.61283076  0.45428865    -0.05300
H84         H  0.99718734  0.57207771  0.49622300     0.08400
H85         H  0.00114777  0.62410798  0.42750585     0.09600
Cu86       Cu  0.99753413  0.59412573  0.60649144     0.44200
Cu87       Cu  0.00266434  0.63901733  0.54634864     0.42000
Cu88       Cu  0.00354236  0.63633605  0.68347699     0.43900
N89         N  0.99782130  0.59444609  0.68684628    -0.34000
N90         N  0.00003403  0.60987853  0.71432867    -0.28200
C91         C  0.00035255  0.60592503  0.76429995    -0.04300
C92         C  0.99840055  0.58713549  0.76917739     0.07900
C93         C  0.99662484  0.58024592  0.71894320     0.01700
H94         H  0.00242056  0.61629576  0.79489917     0.09300
H95         H  0.99450250  0.56593223  0.70636824     0.08400
N96         N  0.00775048  0.66172300  0.64448840    -0.35400
N97         N  0.00728131  0.66246439  0.59402594    -0.27600
C98         C  0.00990378  0.68035621  0.57996375    -0.02800
C99         C  0.01227343  0.69162987  0.62360423     0.05800
C100        C  0.01075282  0.67925835  0.66391777     0.03900
H101        H  0.00986711  0.68473895  0.54078489     0.09000
H102        H  0.01105352  0.68242779  0.70443891     0.07800
C103        C  0.20076483  0.01246217  0.65298749     0.80900
N104        N  0.18284285  0.99441371  0.64823352    -0.77400
C105        C  0.16472483  0.99350910  0.64923900     0.83400
N106        N  0.16467847  0.01096808  0.65563671    -0.77300
C107        C  0.18240264  0.02914316  0.65976730     0.83500
N108        N  0.20027845  0.02971321  0.65753111    -0.79100
C109        C  0.19668041  0.19422025  0.66518872     0.80900
N110        N  0.19673736  0.17670583  0.66875990    -0.77400
C111        C  0.17903738  0.15832821  0.66744739     0.83400
N112        N  0.16104791  0.15757576  0.66403465    -0.77300
C113        C  0.16084788  0.17496993  0.65957217     0.83500
N114        N  0.17866786  0.19308858  0.65979949    -0.79100
C115        C  0.01621227  0.19959462  0.64550854     0.80900
N116        N  0.99826060  0.18153029  0.64633705    -0.77400
C117        C  0.99776020  0.16375763  0.64657850     0.83400
N118        N  0.01550317  0.16410133  0.64642238    -0.77300
C119        C  0.03367685  0.18193350  0.64742267     0.83500
N120        N  0.03392167  0.19966702  0.64660215    -0.79100
N121        N  0.01153194  0.40100288  0.72677228    -0.26600
N122        N  0.00969552  0.41470938  0.70166811    -0.34500
C123        C  0.00736886  0.42647706  0.73582428     0.01700
C124        C  0.00771384  0.41980729  0.78482868     0.07800
C125        C  0.01051377  0.40370140  0.77739967    -0.05300
H126        H  0.00637458  0.43946486  0.72564199     0.08400
H127        H  0.01199324  0.39475650  0.80667884     0.09600
Cu128      Cu  0.01187650  0.41736943  0.62212916     0.44200
Cu129      Cu  0.01630580  0.37988922  0.69117491     0.42000
Cu130      Cu  0.02162241  0.38209567  0.55287320     0.43900
N131        N  0.01510883  0.41716137  0.54276745    -0.34000
N132        N  0.01861235  0.40438933  0.51757243    -0.28200
C133        C  0.01884212  0.40771008  0.46692361    -0.04300
C134        C  0.01543728  0.42343822  0.45964326     0.07900
C135        C  0.01310246  0.42895462  0.50878859     0.01700
H136        H  0.02040976  0.39863225  0.43769375     0.09300
H137        H  0.00977888  0.44049931  0.51918736     0.08400
N138        N  0.02275389  0.36063276  0.59784633    -0.35400
N139        N  0.02080895  0.36000024  0.64827284    -0.27600
C140        C  0.02100371  0.34387315  0.66605894    -0.02800
C141        C  0.02318446  0.33373847  0.62495561     0.05800
C142        C  0.02422226  0.34482069  0.58218003     0.03900
H143        H  0.01918286  0.33958366  0.70593866     0.09000
H144        H  0.02494273  0.34116703  0.54254803     0.07800
N145        N  0.41111678  0.01911579  0.55854800    -0.26600
N146        N  0.42525425  0.01797683  0.58358017    -0.34500
C147        C  0.43667090  0.01494175  0.54929122     0.01700
C148        C  0.42929496  0.01397715  0.50030195     0.07800
C149        C  0.41323235  0.01694404  0.50800731    -0.05300
H150        H  0.44933876  0.01343498  0.55943506     0.08400
H151        H  0.40323875  0.01670615  0.47909570     0.09600
Cu152      Cu  0.42748615  0.01962941  0.66395534     0.44200
Cu153      Cu  0.38811829  0.02155287  0.59394277     0.42000
Cu154      Cu  0.38627456  0.02126346  0.73142313     0.43900
N155        N  0.42532527  0.02125273  0.74414433    -0.34000
N156        N  0.41032917  0.02169881  0.76806633    -0.28200
C157        C  0.41316830  0.02238798  0.81898837    -0.04300
C158        C  0.43097477  0.02266066  0.82826986     0.07900
C159        C  0.43811277  0.02174159  0.77958698     0.01700
H160        H  0.40257093  0.02207629  0.84708133     0.09300
H161        H  0.45168215  0.02145277  0.77052540     0.08400
N162        N  0.36390009  0.02082269  0.68662497    -0.35400
N163        N  0.36471517  0.02106447  0.63603712    -0.27600
C164        C  0.34798358  0.02009265  0.61800234    -0.02800
C165        C  0.33599294  0.01936328  0.65916235     0.05800
C166        C  0.34660560  0.01972208  0.70209505     0.03900
H167        H  0.34454635  0.01927835  0.57776089     0.09000
H168        H  0.34206724  0.01917672  0.74167633     0.07800
C169        C  0.82906504  0.01117809  0.60719371     0.80900
N170        N  0.82866280  0.99345267  0.60239411    -0.77400
C171        C  0.84620904  0.99328109  0.60051701     0.83400
N172        N  0.86430699  0.01115634  0.60256073    -0.77300
C173        C  0.86506924  0.02898540  0.60862414     0.83500
N174        N  0.84737263  0.02880259  0.61048595    -0.79100
N175        N  0.62949240  0.01812097  0.75239068    -0.26600
N176        N  0.61466200  0.01932404  0.73153135    -0.34500
C177        C  0.60191163  0.01805920  0.76929366     0.01700
C178        C  0.60899786  0.01595208  0.81629892     0.07800
C179        C  0.62671026  0.01631967  0.80352235    -0.05300
H180        H  0.58828949  0.01839409  0.76285554     0.08400
H181        H  0.63722428  0.01574770  0.82921066     0.09600
Cu182      Cu  0.61274036  0.02278027  0.65215502     0.44200
Cu183      Cu  0.65296165  0.01847382  0.71154681     0.42000
Cu184      Cu  0.65473069  0.02608598  0.57672161     0.43900
N185        N  0.61523435  0.02547412  0.57167346    -0.34000
N186        N  0.63050872  0.02655636  0.54518310    -0.28200
C187        C  0.62731663  0.02699586  0.49486819    -0.04300
C188        C  0.60905819  0.02604981  0.48843550     0.07900
C189        C  0.60196317  0.02535710  0.53837054     0.01700
H190        H  0.63731294  0.02725468  0.46504205     0.09300
H191        H  0.58819579  0.02478598  0.54999484     0.08400
N192        N  0.67651863  0.02324453  0.61458007    -0.35400
N193        N  0.67554202  0.01986957  0.66434360    -0.27600
C194        C  0.69125214  0.01797346  0.67749397    -0.02800
C195        C  0.70287804  0.02056501  0.63395343     0.05800
C196        C  0.69298653  0.02378180  0.59468074     0.03900
H197        H  0.69410234  0.01510937  0.71591789     0.09000
H198        H  0.69713905  0.02588052  0.55453320     0.07800
N199        N  0.39397056  0.41690387  0.67419477    -0.26600
N200        N  0.41000023  0.42991923  0.64665069    -0.34500
C201        C  0.42292692  0.44541726  0.67672679     0.01700
C202        C  0.41456954  0.44206730  0.72572749     0.07800
C203        C  0.39622780  0.42371376  0.72258074    -0.05300
H204        H  0.43761149  0.45787149  0.66417224     0.08400
H205        H  0.38581038  0.41526982  0.75370735     0.09600
Cu206      Cu  0.41412792  0.42435038  0.57120865     0.44200
Cu207      Cu  0.37121596  0.38941986  0.64546463     0.42000
Cu208      Cu  0.37971859  0.37342497  0.52020316     0.43900
N209        N  0.41691031  0.41492978  0.49876927    -0.34000
N210        N  0.40507810  0.39647458  0.48002154    -0.28200
C211        C  0.41142747  0.39607201  0.43172410    -0.04300
C212        C  0.42788152  0.41522740  0.41966121     0.07900
C213        C  0.43081162  0.42668038  0.46316586     0.01700
H214        H  0.40405938  0.38309493  0.40653087     0.09300
H215        H  0.44210440  0.44258280  0.46835394     0.08400
N216        N  0.35474169  0.35505321  0.56871763    -0.35400
N217        N  0.35183961  0.36124781  0.61361730    -0.27600
C218        C  0.33477940  0.34619677  0.63578926    -0.02800
C219        C  0.32624158  0.32961793  0.60343352     0.05800
C220        C  0.33937449  0.33576392  0.56122984     0.03900
H221        H  0.32901681  0.34727177  0.67285770     0.09000
H222        H  0.33810138  0.32675788  0.52799783     0.07800
C223        C  0.79382036  0.03048944  0.63841255    -0.01300
C224        C  0.77466270  0.01428337  0.62317149     0.07300
C225        C  0.77326226  0.99673736  0.60305095    -0.07300
C226        C  0.79053910  0.99519965  0.59745822     0.04700
C227        C  0.80988878  0.01153160  0.61241165    -0.14500
C228        C  0.81108245  0.02901133  0.63298341    -0.07800
C229        C  0.75609663  0.01566490  0.62625594     0.05700
C230        C  0.75557338  0.03080407  0.59817947    -0.09000
C231        C  0.73851692  0.03277096  0.60020836     0.00700
C232        C  0.72137195  0.01923021  0.63040056     0.00500
C233        C  0.72194864  0.00416488  0.65864418    -0.12500
C234        C  0.73902948  0.00225301  0.65674927     0.01000
C235        C  0.73950035  0.04948419  0.57320196     0.40300
C236        C  0.73883426  0.98674197  0.68756272     0.36900
C237        C  0.79612768  0.04870928  0.66064404     0.36600
C238        C  0.78783836  0.97694228  0.57449175     0.37400
N239        N  0.74037620  0.06297288  0.55180856    -0.43400
N240        N  0.73852892  0.97426652  0.71243563    -0.43800
N241        N  0.78554389  0.96226723  0.55597297    -0.41200
N242        N  0.79799620  0.06332444  0.67839842    -0.42600
H243        H  0.82558290  0.04167184  0.64530649     0.13500
H244        H  0.75861314  0.98430461  0.59071824     0.10000
H245        H  0.76865175  0.04124880  0.57484242     0.11100
H246        H  0.70892259  0.99372916  0.68214288     0.16900
C247        C  0.95901730  0.10999499  0.60745667    -0.01300
C248        C  0.94120600  0.10628797  0.63359996     0.07300
C249        C  0.94226567  0.12158842  0.66520780    -0.07300
C250        C  0.96040223  0.14044212  0.66984233     0.04700
C251        C  0.97814530  0.14412706  0.64341211    -0.14500
C252        C  0.97721444  0.12866767  0.61288908    -0.07800
C253        C  0.92146806  0.08658638  0.62844602     0.05700
C254        C  0.92071091  0.06838049  0.63820710    -0.09000
C255        C  0.90283427  0.04950224  0.63122145     0.00700
C256        C  0.88483588  0.04850584  0.61540822     0.00500
C257        C  0.88554055  0.06681575  0.60702397    -0.12500
C258        C  0.90352837  0.08564757  0.61314567     0.01000
C259        C  0.90360086  0.03159803  0.64139092     0.40300
C260        C  0.90317465  0.10373064  0.60229396     0.36900
C261        C  0.95898547  0.09510513  0.57374900     0.36600
C262        C  0.96049206  0.15542100  0.70331559     0.37400
N263        N  0.90433494  0.01730087  0.64930710    -0.43400
N264        N  0.90277816  0.11818116  0.59391726    -0.43800
N265        N  0.96052018  0.16740603  0.73012929    -0.41200
N266        N  0.95899097  0.08311783  0.54702144    -0.42600
H267        H  0.99069291  0.13133076  0.59219835     0.13500
H268        H  0.92886364  0.11876753  0.68653557     0.10000
H269        H  0.93425494  0.06891746  0.65120005     0.11100
H270        H  0.87201844  0.06650148  0.59487097     0.16900
C271        C  0.00790802  0.28105920  0.66889503    -0.01300
C272        C  0.01953475  0.27634915  0.63616530     0.07300
C273        C  0.03220507  0.29043765  0.59876351    -0.07300
C274        C  0.03356132  0.30913238  0.59381466     0.04700
C275        C  0.02211569  0.31402451  0.62709632    -0.14500
C276        C  0.00936523  0.29977454  0.66433012    -0.07800
C277        C  0.01864993  0.25677849  0.64007875     0.05700
C278        C  0.00077648  0.23885292  0.62652725    -0.09000
C279        C  0.99948363  0.22011946  0.62802565     0.00700
C280        C  0.01650759  0.21906907  0.64341608     0.00500
C281        C  0.03436065  0.23721858  0.65724548    -0.12500
C282        C  0.03550067  0.25588334  0.65596939     0.01000
C283        C  0.98059381  0.20253403  0.61203810     0.40300
C284        C  0.05392655  0.27390244  0.67240262     0.36900
C285        C  0.99464005  0.26708964  0.70802234     0.36600
C286        C  0.04736253  0.32315390  0.55553996     0.37400
N287        N  0.96537092  0.18855157  0.59920734    -0.43400
N288        N  0.06860571  0.28839497  0.68573614    -0.43800
N289        N  0.05844941  0.33425494  0.52464337    -0.41200
N290        N  0.98395535  0.25593311  0.73937972    -0.42600
H291        H  0.00029817  0.30315836  0.68981816     0.13500
H292        H  0.04112295  0.28679526  0.57340395     0.10000
H293        H  0.98781542  0.23956593  0.61407067     0.11100
H294        H  0.04749737  0.23689412  0.66965379     0.16900
C295        C  0.10776152  0.16384156  0.68966841    -0.01300
C296        C  0.10593403  0.17649118  0.65428429     0.07300
C297        C  0.12174168  0.18774042  0.61897755    -0.07300
C298        C  0.13937565  0.18681431  0.61893426     0.04700
C299        C  0.14150356  0.17454700  0.65507794    -0.14500
C300        C  0.12542645  0.16286728  0.68963796    -0.07800
C301        C  0.08748386  0.17790107  0.65240467     0.05700
C302        C  0.08824540  0.19524955  0.67157932    -0.09000
C303        C  0.07118375  0.19722870  0.66979834     0.00700
C304        C  0.05281593  0.18153770  0.64831367     0.00500
C305        C  0.05237087  0.16433022  0.62841080    -0.12500
C306        C  0.06944265  0.16246904  0.63014999     0.01000
C307        C  0.07299893  0.21522839  0.69195307     0.40300
C308        C  0.06826650  0.14474198  0.60803339     0.36900
C309        C  0.09195527  0.15221001  0.72719323     0.36600
C310        C  0.15477438  0.19806401  0.58020254     0.37400
N311        N  0.07482536  0.22978288  0.70999134    -0.43400
N312        N  0.06745136  0.13059962  0.59027253    -0.43800
N313        N  0.16706656  0.20697511  0.54898050    -0.41200
N314        N  0.07930368  0.14292544  0.75735114    -0.42600
H315        H  0.12693847  0.15349376  0.71769210     0.13500
H316        H  0.12021192  0.19717039  0.59110957     0.10000
H317        H  0.10220059  0.20721531  0.68839947     0.11100
H318        H  0.03864031  0.15224345  0.61106293     0.16900
C319        C  0.28612311  0.28304740  0.67618798    -0.01300
C320        C  0.27185665  0.27192952  0.63789657     0.07300
C321        C  0.27544049  0.27976556  0.58797886    -0.07300
C322        C  0.29302981  0.29841448  0.57571417     0.04700
C323        C  0.30749002  0.30957343  0.61391542    -0.14500
C324        C  0.30369133  0.30171507  0.66406510    -0.07800
C325        C  0.25311075  0.25201632  0.64880050     0.05700
C326        C  0.23550055  0.25142739  0.66562254    -0.09000
C327        C  0.21718112  0.23287512  0.67319486     0.00700
C328        C  0.21616573  0.21432506  0.66273212     0.00500
C329        C  0.23416729  0.21510339  0.64781370    -0.12500
C330        C  0.25249977  0.23369144  0.64110045     0.01000
C331        C  0.19994394  0.23349804  0.69304005     0.40300
C332        C  0.27056455  0.23367394  0.62619811     0.36900
C333        C  0.28311935  0.27547451  0.72797352     0.36600
C334        C  0.29528061  0.30616232  0.52436139     0.37400
N335        N  0.18618124  0.23402726  0.70917739    -0.43400
N336        N  0.28512538  0.23374583  0.61459849    -0.43800
N337        N  0.29698620  0.31237016  0.48320290    -0.41200
N338        N  0.28074972  0.26939292  0.76946843    -0.42600
H339        H  0.31461288  0.31007978  0.69386547     0.13500
H340        H  0.26435860  0.27131545  0.55858034     0.10000
H341        H  0.23607135  0.26554089  0.67263752     0.11100
H342        H  0.23390935  0.20118470  0.64027867     0.16900
C343        C  0.19555589  0.12121865  0.69902340    -0.01300
C344        C  0.18203824  0.10403615  0.66999815     0.07300
C345        C  0.16746426  0.10470238  0.64011644    -0.07300
C346        C  0.16625734  0.12216213  0.63848982     0.04700
C347        C  0.17957407  0.13934945  0.66816867    -0.14500
C348        C  0.19421914  0.13862741  0.69799122    -0.07800
C349        C  0.18292493  0.08526140  0.66943581     0.05700
C350        C  0.16751940  0.06784318  0.69444652    -0.09000
C351        C  0.16728647  0.04958193  0.69301459     0.00700
C352        C  0.18245513  0.04837195  0.66494720     0.00500
C353        C  0.19816265  0.06603825  0.64106257    -0.12500
C354        C  0.19850274  0.08433480  0.64310260     0.01000
C355        C  0.15196284  0.03274131  0.72303991     0.40300
C356        C  0.21471716  0.10184754  0.61683535     0.36900
C357        C  0.21089067  0.12128923  0.73012133     0.36600
C358        C  0.15209537  0.12240592  0.60347561     0.37400
N359        N  0.13978553  0.01942372  0.74778509    -0.43400
N360        N  0.22774487  0.11590737  0.59591364    -0.43800
N361        N  0.14086732  0.12262616  0.57502019    -0.41200
N362        N  0.22324116  0.12133471  0.75477770    -0.42600
H363        H  0.20462531  0.15168220  0.72072320     0.13500
H364        H  0.15728821  0.09165822  0.61702855     0.10000
H365        H  0.15571959  0.06858950  0.71556217     0.11100
H366        H  0.21003120  0.06547851  0.61977448     0.16900
C367        C  0.23898681  0.99529925  0.64483103    -0.01300
C368        C  0.25730361  0.01288876  0.65910020     0.07300
C369        C  0.25714529  0.03045132  0.67124362    -0.07300
C370        C  0.23917904  0.03080471  0.66961959     0.04700
C371        C  0.22057884  0.01315376  0.65509873    -0.14500
C372        C  0.22093107  0.99553995  0.64294807    -0.07800
C373        C  0.27707621  0.01378206  0.65911158     0.05700
C374        C  0.29161002  0.02526045  0.62117617    -0.09000
C375        C  0.31070824  0.02717221  0.62006109     0.00700
C376        C  0.31576176  0.01760373  0.65805708     0.00500
C377        C  0.30114971  0.00619930  0.69632410    -0.12500
C378        C  0.28194209  0.00413291  0.69695905     0.01000
C379        C  0.32495988  0.03973046  0.58048939     0.40300
C380        C  0.26758876  0.99230987  0.73719291     0.36900
C381        C  0.23847238  0.97695243  0.63096909     0.36600
C382        C  0.24061162  0.04957629  0.68380879     0.37400
N383        N  0.33621587  0.04979160  0.54844146    -0.43400
N384        N  0.25606949  0.98276945  0.76936567    -0.43800
N385        N  0.24189542  0.06467969  0.69521873    -0.41200
N386        N  0.23812028  0.96226161  0.62000143    -0.42600
H387        H  0.20707875  0.98183810  0.63156743     0.13500
H388        H  0.27124151  0.04403503  0.68213202     0.10000
H389        H  0.28800013  0.03287802  0.59224336     0.11100
H390        H  0.30465122  0.99866663  0.72571389     0.16900
C391        C  0.83225233  0.90054772  0.59081808    -0.01300
C392        C  0.84830218  0.91927236  0.60894052     0.07300
C393        C  0.86506291  0.91994445  0.63144870    -0.07300
C394        C  0.86618568  0.90246427  0.63532977     0.04700
C395        C  0.85006513  0.88363881  0.61718881    -0.14500
C396        C  0.83318542  0.88305693  0.59538470    -0.07800
C397        C  0.84772391  0.93820014  0.60520813     0.05700
C398        C  0.83159626  0.93884248  0.62868056    -0.09000
C399        C  0.83047823  0.95631900  0.62656802     0.00700
C400        C  0.84587496  0.97384393  0.60079877     0.00500
C401        C  0.86202879  0.97314494  0.57719439    -0.12500
C402        C  0.86300865  0.95555291  0.57903103     0.01000
C403        C  0.81388717  0.95603425  0.65364156     0.40300
C404        C  0.87966498  0.95551366  0.55317122     0.36900
C405        C  0.81492839  0.89896451  0.56575180     0.36600
C406        C  0.88385746  0.90438020  0.65910980     0.37400
N407        N  0.80059816  0.95579605  0.67543696    -0.43400
N408        N  0.89295475  0.95527916  0.53276696    -0.43800
N409        N  0.89813931  0.90613160  0.67808416    -0.41200
N410        N  0.80105015  0.89767513  0.54561724    -0.42600
H411        H  0.82069792  0.86888479  0.58073589     0.13500
H412        H  0.87733161  0.93423147  0.64622810     0.10000
H413        H  0.81995907  0.92568316  0.64950611     0.11100
H414        H  0.87393783  0.98637784  0.55715696     0.16900
C415        C  0.77339056  0.79292609  0.61285775    -0.06100
C416        C  0.77077431  0.77356374  0.61892722     0.07300
C417        C  0.78814046  0.77222515  0.62327306    -0.07300
C418        C  0.80770934  0.78961558  0.62404644     0.04700
C419        C  0.81040283  0.80906596  0.61740945    -0.14500
C420        C  0.79295565  0.81024462  0.61120635    -0.07800
C421        C  0.75018518  0.75457768  0.62050074     0.05700
C422        C  0.73650327  0.75082705  0.58107136    -0.09000
C423        C  0.71712766  0.73322771  0.58063581     0.00700
C424        C  0.71127082  0.71827925  0.61917632     0.00500
C425        C  0.72487396  0.72212202  0.65900560    -0.12500
C426        C  0.74407564  0.74005872  0.66017209     0.01000
C427        C  0.70338479  0.73155249  0.54131594     0.40300
C428        C  0.75709146  0.74328933  0.70292577     0.36900
C429        C  0.75631578  0.79569503  0.61052915     0.36600
C430        C  0.82437212  0.78678208  0.63442167     0.37400
N431        N  0.69243228  0.73036942  0.50980472    -0.43400
N432        N  0.76761493  0.74588421  0.73697009    -0.43800
N433        N  0.83755461  0.78432153  0.64349416    -0.41200
N434        N  0.74276034  0.79810982  0.60871043    -0.42600
H435        H  0.79445031  0.82486855  0.60613389     0.13500
H436        H  0.78638779  0.75743565  0.62708271     0.10000
H437        H  0.74096374  0.76176737  0.55028820     0.11100
H438        H  0.72063199  0.71096106  0.68909966     0.16900
C439        C  0.10913908  0.95322516  0.67391596    -0.01300
C440        C  0.10709028  0.93608846  0.64875576     0.07300
C441        C  0.12403176  0.93787879  0.62294058    -0.07300
C442        C  0.14282725  0.95632793  0.62191207     0.04700
C443        C  0.14502034  0.97356645  0.64752579    -0.14500
C444        C  0.12787993  0.97167765  0.67291617    -0.07800
C445        C  0.08727991  0.91636551  0.64710478     0.05700
C446        C  0.07135688  0.91497213  0.61858127    -0.09000
C447        C  0.05278956  0.89649834  0.61390490     0.00700
C448        C  0.04986651  0.87877455  0.63797237     0.00500
C449        C  0.06588912  0.88027090  0.66661294    -0.12500
C450        C  0.08434873  0.89884689  0.67173677     0.01000
C451        C  0.03738552  0.89616347  0.58250600     0.40300
C452        C  0.09979473  0.89977471  0.70411602     0.36900
C453        C  0.09241894  0.95210492  0.70246818     0.36600
C454        C  0.15920933  0.95719729  0.59230471     0.37400
N455        N  0.02515031  0.89606138  0.55723412    -0.43400
N456        N  0.11210430  0.90057323  0.73047925    -0.43800
N457        N  0.17218865  0.95772060  0.56823097    -0.41200
N458        N  0.07913275  0.95130898  0.72570011    -0.42600
H459        H  0.12915957  0.98457446  0.69299531     0.13500
H460        H  0.12245532  0.92483518  0.60280885     0.10000
H461        H  0.07356852  0.92835529  0.59927209     0.11100
H462        H  0.06384359  0.86699175  0.68610134     0.16900
C463        C  0.95605652  0.85433163  0.59919976    -0.01300
C464        C  0.93959962  0.84228138  0.63262121     0.07300
C465        C  0.94108064  0.82937977  0.66741727    -0.07300
C466        C  0.95876717  0.82844403  0.66921331     0.04700
C467        C  0.97509276  0.84016391  0.63475500    -0.14500
C468        C  0.97351623  0.85311125  0.60024247    -0.07800
C469        C  0.92077075  0.84304072  0.63106678     0.05700
C470        C  0.90480653  0.82919009  0.60000453    -0.09000
C471        C  0.88742047  0.83033432  0.59404721     0.00700
C472        C  0.88555684  0.84533024  0.62055140     0.00500
C473        C  0.90176922  0.85939997  0.65103550    -0.12500
C474        C  0.91929405  0.85839987  0.65627808     0.01000
C475        C  0.87231544  0.81668889  0.55810817     0.40300
C476        C  0.93565881  0.87334344  0.68741356     0.36900
C477        C  0.95534718  0.86824449  0.56399979     0.36600
C478        C  0.96043238  0.81664976  0.70925422     0.37400
N479        N  0.86027868  0.80586725  0.52902334    -0.43400
N480        N  0.94882538  0.88534710  0.71222678    -0.43800
N481        N  0.96189418  0.80745326  0.74186024    -0.41200
N482        N  0.95461693  0.87943544  0.53626584    -0.42600
H483        H  0.98600319  0.86235174  0.57399510     0.13500
H484        H  0.92858208  0.82037550  0.69389939     0.10000
H485        H  0.90619622  0.81777874  0.57924266     0.11100
H486        H  0.90064274  0.87101268  0.67146389     0.16900
C487        C  0.03220442  0.78720716  0.62336989    -0.01300
C488        C  0.01461212  0.76793518  0.63115391     0.07300
C489        C  0.99610084  0.76663655  0.64134471    -0.07300
C490        C  0.99470437  0.78398190  0.64311297     0.04700
C491        C  0.01233967  0.80353190  0.63531509    -0.14500
C492        C  0.03096960  0.80467468  0.62561487    -0.07800
C493        C  0.01487593  0.74881023  0.62767191     0.05700
C494        C  0.02629124  0.74515485  0.66254178    -0.09000
C495        C  0.02598055  0.72683172  0.66163442     0.00700
C496        C  0.01379719  0.71160537  0.62576055     0.00500
C497        C  0.00277343  0.71553094  0.59028270    -0.12500
C498        C  0.00327403  0.73386890  0.59082185     0.01000
C499        C  0.03905284  0.72450812  0.69614955     0.40300
C500        C  0.99204657  0.73717452  0.55242069     0.36900
C501        C  0.05158218  0.78940051  0.61142947     0.36600
C502        C  0.97477701  0.78074065  0.65282329     0.37400
N503        N  0.04968628  0.72276655  0.72355496    -0.43400
N504        N  0.98309552  0.73986368  0.52159214    -0.43800
N505        N  0.95850910  0.77745534  0.66023889    -0.41200
N506        N  0.06710771  0.79114556  0.60186278    -0.42600
H507        H  0.04472242  0.81927824  0.61896098     0.13500
H508        H  0.98252374  0.75182531  0.64762245     0.10000
H509        H  0.03543076  0.75664343  0.69065865     0.11100
H510        H  0.99347979  0.70410656  0.56218935     0.16900
C511        C  0.99657108  0.55593795  0.20669870    -0.01300
C512        C  0.99310645  0.55112726  0.25927953     0.07300
C513        C  0.98402773  0.53090284  0.27454315    -0.07300
C514        C  0.97870724  0.51549847  0.23881067     0.04700
C515        C  0.98229664  0.52012662  0.18561594    -0.14500
C516        C  0.99092031  0.54042340  0.17035689    -0.07800
C517        C  0.99795405  0.56641217  0.30008026     0.05700
C518        C  0.98553973  0.57454406  0.30645205    -0.09000
C519        C  0.98626960  0.58490658  0.35150979     0.00700
C520        C  0.99933327  0.58682194  0.39145879     0.00500
C521        C  0.01264517  0.57982842  0.38347999    -0.12500
C522        C  0.01223460  0.56993087  0.33805237     0.01000
C523        C  0.97243856  0.59207100  0.35707402     0.40300
C524        C  0.02627022  0.56304905  0.33161913     0.36900
C525        C  0.00651186  0.57668873  0.18945987     0.36600
C526        C  0.96953191  0.49512815  0.25870982     0.37400
N527        N  0.96133595  0.59781500  0.36109633    -0.43400
N528        N  0.03762246  0.55766660  0.32633222    -0.43800
N529        N  0.96199932  0.47890168  0.27536588    -0.41200
N530        N  0.01464891  0.59334976  0.17563044    -0.42600
H531        H  0.99322054  0.54425049  0.13013645     0.13500
H532        H  0.98108446  0.52713369  0.31495953     0.10000
H533        H  0.97445986  0.57178619  0.27746032     0.11100
H534        H  0.02314339  0.58176234  0.41330294     0.16900
C535        C  0.99504569  0.44527502  0.36529305    -0.01300
C536        C  0.00568177  0.44657807  0.31973350     0.07300
C537        C  0.01966485  0.44023645  0.31982502    -0.07300
C538        C  0.02314246  0.43259394  0.36459377     0.04700
C539        C  0.01251948  0.43131654  0.41059910    -0.14500
C540        C  0.99855802  0.43778098  0.41003864    -0.07800
C541        C  0.00231959  0.45461029  0.27187036     0.05700
C542        C  0.01276846  0.47558800  0.26429678    -0.09000
C543        C  0.00805568  0.48402740  0.22345734     0.00700
C544        C  0.99248568  0.47118164  0.18856086     0.00500
C545        C  0.98307712  0.45003862  0.19476101    -0.12500
C546        C  0.98773116  0.44175291  0.23607771     0.01000
C547        C  0.01856331  0.50588537  0.22174126     0.40300
C548        C  0.97659140  0.42002656  0.24267244     0.36900
C549        C  0.98024485  0.45131633  0.36691821     0.36600
C550        C  0.03812031  0.42681254  0.36214355     0.37400
N551        N  0.02720191  0.52342816  0.22146920    -0.43400
N552        N  0.96765394  0.40261707  0.24824171    -0.43800
N553        N  0.05012130  0.42216601  0.35953448    -0.41200
N554        N  0.96832144  0.45607443  0.36852323    -0.42600
H555        H  0.99003094  0.43668244  0.44454917     0.13500
H556        H  0.02792910  0.44133177  0.28479595     0.10000
H557        H  0.02404728  0.48546889  0.29194633     0.11100
H558        H  0.97132511  0.43990852  0.16847970     0.16900
C559        C  0.00530064  0.45424259  0.02340651    -0.01300
C560        C  0.01230242  0.46148945  0.97332314     0.07300
C561        C  0.02306810  0.48232017  0.96418461    -0.07300
C562        C  0.02689778  0.49607945  0.00357424     0.04700
C563        C  0.02015777  0.48908563  0.05458734    -0.14500
C564        C  0.00944728  0.46805255  0.06360040    -0.07800
C565        C  0.00902899  0.44807396  0.92895893     0.05700
C566        C  0.99549104  0.44612538  0.89091026    -0.09000
C567        C  0.99463547  0.43685511  0.84391821     0.00700
C568        C  0.00731997  0.42900936  0.83467232     0.00500
C569        C  0.02042196  0.43044414  0.87357325    -0.12500
C570        C  0.02161662  0.44019075  0.92001324     0.01000
C571        C  0.98067734  0.43573549  0.80599337     0.40300
C572        C  0.03690313  0.44331027  0.95635700     0.36900
C573        C  0.99331620  0.43277229  0.03399326     0.36600
C574        C  0.03748548  0.51722708  0.98919056     0.37400
N575        N  0.96956720  0.43500724  0.77557653    -0.43400
N576        N  0.04927475  0.44605516  0.98537544    -0.43800
N577        N  0.04607771  0.53407186  0.97669912    -0.41200
N578        N  0.98355261  0.41556008  0.04248533    -0.42600
H579        H  0.00421876  0.46230203  0.10177565     0.13500
H580        H  0.02841628  0.48787653  0.92556855     0.10000
H581        H  0.98609282  0.45257200  0.89730952     0.11100
H582        H  0.03049676  0.42480869  0.86676828     0.16900
C583        C  0.01704970  0.56599527  0.00047327    -0.01300
C584        C  0.00246584  0.55321032  0.96439712     0.07300
C585        C  0.99093036  0.53232693  0.97404528    -0.07300
C586        C  0.99442557  0.52389983  0.01723438     0.04700
C587        C  0.00989611  0.53662513  0.05252057    -0.14500
C588        C  0.02032375  0.55773952  0.04429736    -0.07800
C589        C  0.00025326  0.56110593  0.91442892     0.05700
C590        C  0.00714512  0.55644518  0.86943800    -0.09000
C591        C  0.00659000  0.56448280  0.82180317     0.00700
C592        C  0.99863743  0.57730095  0.81825301     0.00500
C593        C  0.99138152  0.58158142  0.86351604    -0.12500
C594        C  0.99212025  0.57364445  0.91110986     0.01000
C595        C  0.01549844  0.56024265  0.77823997     0.40300
C596        C  0.98428135  0.57841323  0.95602664     0.36900
C597        C  0.03002091  0.58749025  0.99127300     0.36600
C598        C  0.98262217  0.50206520  0.02149302     0.37400
N599        N  0.02277405  0.55678362  0.74368378    -0.43400
N600        N  0.97800591  0.58221730  0.99208551    -0.43800
N601        N  0.97303054  0.48454243  0.02407551    -0.41200
N602        N  0.04055317  0.60469572  0.98365696    -0.42600
H603        H  0.03191609  0.56786328  0.07091757     0.13500
H604        H  0.97963202  0.52243940  0.94644628     0.10000
H605        H  0.01357731  0.54693594  0.87184161     0.11100
H606        H  0.98503476  0.59116596  0.86185277     0.16900
C607        C  0.54610521  0.55685893  0.84509913    -0.01300
C608        C  0.55572953  0.55748582  0.89120762     0.07300
C609        C  0.57697257  0.56989452  0.89369366    -0.07300
C610        C  0.58859958  0.58180387  0.85171458     0.04700
C611        C  0.57897522  0.58150447  0.80563917    -0.14500
C612        C  0.55769725  0.56868732  0.80299532    -0.07800
C613        C  0.54384230  0.54597280  0.93775042     0.05700
C614        C  0.53214324  0.52464146  0.93676543    -0.09000
C615        C  0.51977206  0.51355087  0.97885025     0.00700
C616        C  0.51864022  0.52383801  0.02236806     0.00500
C617        C  0.53115678  0.54501201  0.02442078    -0.12500
C618        C  0.54370930  0.55609712  0.98285272     0.01000
C619        C  0.50862341  0.49170307  0.97699406     0.40300
C620        C  0.55552927  0.57792822  0.98654634     0.36900
C621        C  0.52425601  0.54494949  0.84078971     0.36600
C622        C  0.61040345  0.59353658  0.85681397     0.37400
N623        N  0.49981873  0.47416886  0.97549866    -0.43400
N624        N  0.56506525  0.59542400  0.98973805    -0.43800
N625        N  0.62788456  0.60289714  0.86122328    -0.41200
N626        N  0.50674501  0.53554380  0.83725237    -0.42600
H627        H  0.54995131  0.56825630  0.76829925     0.13500
H628        H  0.58451477  0.57029214  0.92878588     0.10000
H629        H  0.53256969  0.51667134  0.90289146     0.11100
H630        H  0.53032836  0.55295283  0.05784775     0.16900
C631        C  0.44932468  0.46899466  0.95599091    -0.01300
C632        C  0.45295212  0.48220593  0.91482075     0.07300
C633        C  0.46531949  0.50322285  0.92211986    -0.07300
C634        C  0.47454266  0.51112805  0.96945132     0.04700
C635        C  0.47186444  0.49783085  0.00968207    -0.14500
C636        C  0.45882957  0.47685377  0.00280151    -0.07800
C637        C  0.44373446  0.47411337  0.86419947     0.05700
C638        C  0.42270667  0.46517642  0.85914301    -0.09000
C639        C  0.41299782  0.45537168  0.81379452     0.00700
C640        C  0.42438716  0.45404089  0.77264350     0.00500
C641        C  0.44562901  0.46384301  0.77710792    -0.12500
C642        C  0.45534377  0.47389506  0.82230856     0.01000
C643        C  0.39148590  0.44747758  0.81016442     0.40300
C644        C  0.47710441  0.48317519  0.82555243     0.36900
C645        C  0.43623796  0.44728476  0.95063756     0.36600
C646        C  0.48582113  0.53281650  0.97650340     0.37400
N647        N  0.37426036  0.44129637  0.80737581    -0.43400
N648        N  0.49454714  0.49061764  0.82798400    -0.43800
N649        N  0.49462585  0.55021976  0.98207882    -0.41200
N650        N  0.42563248  0.42991532  0.94617660    -0.42600
H651        H  0.45655535  0.46652510  0.03365067     0.13500
H652        H  0.46757452  0.51341216  0.89097804     0.10000
H653        H  0.41382398  0.46567765  0.89109643     0.11100
H654        H  0.45465093  0.46311095  0.74588806     0.16900
C655        C  0.45523062  0.45137490  0.30962351    -0.01300
C656        C  0.46373713  0.44178477  0.28207838     0.07300
C657        C  0.45887014  0.42234022  0.29723056    -0.07300
C658        C  0.44645156  0.41287508  0.34070244     0.04700
C659        C  0.43893206  0.42307249  0.36995041    -0.14500
C660        C  0.44314322  0.44211244  0.35318546    -0.07800
C661        C  0.48039349  0.45355914  0.24401088     0.05700
C662        C  0.49911757  0.46878875  0.26309105    -0.09000
C663        C  0.51462084  0.48262717  0.23036774     0.00700
C664        C  0.51173561  0.48125280  0.17669406     0.00500
C665        C  0.49327997  0.46538494  0.15720207    -0.12500
C666        C  0.47760737  0.45154846  0.19048443     0.01000
C667        C  0.53285787  0.49883557  0.25355012     0.40300
C668        C  0.45863441  0.43592955  0.16912964     0.36900
C669        C  0.45929176  0.47111492  0.29471539     0.36600
C670        C  0.44295318  0.39346384  0.35657727     0.37400
N671        N  0.54741117  0.51173990  0.27248524    -0.43400
N672        N  0.44347082  0.42334892  0.15182708    -0.43800
N673        N  0.44018172  0.37790879  0.36931172    -0.41200
N674        N  0.46253362  0.48690809  0.28262287    -0.42600
H675        H  0.43723667  0.44998613  0.37476580     0.13500
H676        H  0.46558702  0.41501198  0.27664861     0.10000
H677        H  0.50128317  0.47042362  0.30421578     0.11100
H678        H  0.49082734  0.46431991  0.11621315     0.16900
C679        C  0.54315768  0.55974798  0.24118284    -0.01300
C680        C  0.56322039  0.57656144  0.23965275     0.07300
C681        C  0.57445844  0.58134942  0.19359580    -0.07300
C682        C  0.56697491  0.56788566  0.15190671     0.04700
C683        C  0.54813495  0.54938622  0.15667445    -0.14500
C684        C  0.53565830  0.54660651  0.19951953    -0.07800
C685        C  0.57375099  0.58604543  0.28816372     0.05700
C686        C  0.57683709  0.57395483  0.32208228    -0.09000
C687        C  0.58511901  0.58112160  0.37032676     0.00700
C688        C  0.59072979  0.60091104  0.38528985     0.00500
C689        C  0.58851281  0.61339594  0.35046711    -0.12500
C690        C  0.57992150  0.60604396  0.30217687     0.01000
C691        C  0.58820257  0.56801607  0.40302172     0.40300
C692        C  0.57686626  0.61891142  0.26859088     0.36900
C693        C  0.53094315  0.55408324  0.28759431     0.36600
C694        C  0.57949618  0.57251513  0.10639513     0.37400
N695        N  0.59068227  0.55746187  0.42899215    -0.43400
N696        N  0.57438028  0.62923572  0.24174771    -0.43800
N697        N  0.58953506  0.57636203  0.06984382    -0.41200
N698        N  0.52121012  0.54926539  0.32485541    -0.42600
H699        H  0.52109255  0.53267528  0.20419986     0.13500
H700        H  0.58975739  0.59453430  0.19185560     0.10000
H701        H  0.57242574  0.55866391  0.31095501     0.11100
H702        H  0.59290845  0.62866848  0.36162814     0.16900
C703        C  0.45109957  0.00305024  0.05929051    -0.01300
C704        C  0.46413373  0.01806182  0.02373312     0.07300
C705        C  0.48514637  0.02844546  0.03174910    -0.07300
C706        C  0.49329293  0.02192554  0.06933246     0.04700
C707        C  0.48036849  0.00402673  0.09750472    -0.14500
C708        C  0.45926836  0.99614432  0.09592062    -0.07800
C709        C  0.45646567  0.02032479  0.97359681     0.05700
C710        C  0.44568424  0.03025541  0.97064327    -0.09000
C711        C  0.43747838  0.03150755  0.92400346     0.00700
C712        C  0.43987879  0.02252382  0.87888717     0.00500
C713        C  0.45099528  0.01286136  0.88221456    -0.12500
C714        C  0.45916385  0.01166069  0.92872468     0.01000
C715        C  0.42723394  0.04263021  0.92380761     0.40300
C716        C  0.46972673  0.00082019  0.92995804     0.36900
C717        C  0.42931230  0.99326446  0.05559155     0.36600
C718        C  0.51502350  0.03307743  0.07502562     0.37400
N719        N  0.41903227  0.05157585  0.92424241    -0.43400
N720        N  0.47817714  0.99213407  0.93124028    -0.43800
N721        N  0.53247263  0.04294495  0.07938569    -0.41200
N722        N  0.41186722  0.98567856  0.05266530    -0.42600
H723        H  0.44904245  0.98270992  0.11820746     0.13500
H724        H  0.49527789  0.04073280  0.00613729     0.10000
H725        H  0.44363701  0.03701513  0.00497919     0.11100
H726        H  0.45293021  0.00570565  0.84855823     0.16900
C727        C  0.57583867  0.01857158  0.92185835    -0.01300
C728        C  0.57831717  0.00840683  0.96327008     0.07300
C729        C  0.59171428  0.00142412  0.95688258    -0.07300
C730        C  0.60211766  0.00387806  0.91025113     0.04700
C731        C  0.59944854  0.01384890  0.86830967    -0.14500
C732        C  0.58649716  0.02138827  0.87557422    -0.07800
C733        C  0.56478729  0.00213712  0.00988467     0.05700
C734        C  0.55195669  0.98133596  0.01986841    -0.09000
C735        C  0.53552535  0.97428562  0.05429770     0.00700
C736        C  0.53149019  0.98818961  0.07905634     0.00500
C737        C  0.54651115  0.00888731  0.07638963    -0.12500
C738        C  0.56290633  0.01601430  0.04142902     0.01000
C739        C  0.52226695  0.95263369  0.06077547     0.40300
C740        C  0.57681524  0.03760705  0.03641638     0.36900
C741        C  0.56144260  0.02512788  0.92443407     0.36600
C742        C  0.61423451  0.99470563  0.90640091     0.37400
N743        N  0.51161123  0.93526899  0.06545821    -0.43400
N744        N  0.58779967  0.05493480  0.03198550    -0.43800
N745        N  0.62383983  0.98720200  0.90425432    -0.41200
N746        N  0.54996410  0.03045483  0.92646289    -0.42600
H747        H  0.58424830  0.02919543  0.84446353     0.13500
H748        H  0.59343754  0.99324866  0.98805572     0.10000
H749        H  0.55379832  0.97046534  0.99780805     0.11100
H750        H  0.54455282  0.01960920  0.09837843     0.16900
C751        C  0.44112226  0.01534821  0.35731278    -0.01300
C752        C  0.44826720  0.00193248  0.35352684     0.07300
C753        C  0.44899029  0.99234899  0.39826383    -0.07300
C754        C  0.44281833  0.99588178  0.44602291     0.04700
C755        C  0.43609781  0.00969827  0.45029168    -0.14500
C756        C  0.43514277  0.01911516  0.40526812    -0.07800
C757        C  0.45569951  0.99794985  0.30410884     0.05700
C758        C  0.47294696  0.01386110  0.27922840    -0.09000
C759        C  0.48336890  0.00989577  0.24066508     0.00700
C760        C  0.47670081  0.98961422  0.22726441     0.00500
C761        C  0.45759416  0.97421953  0.24604392    -0.12500
C762        C  0.44736420  0.97809333  0.28488842     0.01000
C763        C  0.50136065  0.02687320  0.21811614     0.40300
C764        C  0.42920182  0.96112947  0.30711450     0.36900
C765        C  0.43924729  0.02492625  0.31227085     0.36600
C766        C  0.44250178  0.98417799  0.48921275     0.37400
N767        N  0.51556481  0.04083788  0.20020350    -0.43400
N768        N  0.41477491  0.94740939  0.32502820    -0.43800
N769        N  0.44215690  0.97461907  0.52354866    -0.41200
N770        N  0.43771252  0.03249034  0.27595991    -0.42600
H771        H  0.42977517  0.02953753  0.40750234     0.13500
H772        H  0.45437558  0.98193434  0.39581054     0.10000
H773        H  0.47913928  0.02929910  0.29244871     0.11100
H774        H  0.45179286  0.95863545  0.23465631     0.16900
C775        C  0.55984013  0.02820929  0.28259218    -0.01300
C776        C  0.57233703  0.02020708  0.29029692     0.07300
C777        C  0.57178641  0.00630043  0.25459957    -0.07300
C778        C  0.55698021  0.99816861  0.21633076     0.04700
C779        C  0.54249488  0.00408161  0.21324232    -0.14500
C780        C  0.54530819  0.02035182  0.24378574    -0.07800
C781        C  0.58237629  0.02266338  0.34049436     0.05700
C782        C  0.56988996  0.01418396  0.38407490    -0.09000
C783        C  0.57804046  0.01503577  0.43227865     0.00700
C784        C  0.59937743  0.02504844  0.43820972     0.00500
C785        C  0.61187046  0.03348419  0.39412259    -0.12500
C786        C  0.60356182  0.03210905  0.34559234     0.01000
C787        C  0.56386145  0.00423214  0.47363186     0.40300
C788        C  0.61700631  0.04039751  0.30161197     0.36900
C789        C  0.56015871  0.04286294  0.31774110     0.36600
C790        C  0.55484877  0.98143490  0.18635526     0.37400
N791        N  0.55221050  0.99534723  0.50615410    -0.43400
N792        N  0.62775465  0.04690450  0.26625410    -0.43800
N793        N  0.55304400  0.96783063  0.16304261    -0.41200
N794        N  0.56040711  0.05447424  0.34635416    -0.42600
H795        H  0.53428427  0.02490022  0.24274207     0.13500
H796        H  0.58141112  0.00012907  0.26005869     0.10000
H797        H  0.55350859  0.00629262  0.38003130     0.11100
H798        H  0.62823942  0.04113960  0.39733006     0.16900
loop_ 
_geom_bond_atom_site_label_1 
_geom_bond_atom_site_label_2 
_geom_bond_distance 
_geom_bond_site_symmetry_2 
_ccdc_geom_bond_type 
N1            C5   1.372       .  A
N1            C2   1.375       .  A
N1            N8   1.434       .  S
C2            C3   1.383       .  A
C2          C779   1.491   1_565  S
C3            C4   1.355       .  A
C3            H6   1.083       .  S
C4            C5   1.380       .  A
C4            H7   1.083       .  S
C5          C760   1.499       .  S
N8           C12   1.374       .  A
N8            C9   1.376       .  A
C9           C10   1.382       .  A
C9          C736   1.499       .  S
C10          C11   1.355       .  A
C10          H13   1.081       .  S
C11          C12   1.382       .  A
C11          H14   1.083       .  S
C12         C707   1.491   1_565  S
N15          C19   1.354       .  A
N15          C16   1.353       .  A
N15          C26   1.437       .  S
C16          C17   1.388       .  A
C16         C683   1.490       .  S
C17          C18   1.380       .  A
C17          H20   1.082       .  S
C18          C19   1.382       .  A
C18          H21   1.082       .  S
C19         C664   1.491       .  S
N22          C26   1.355       .  A
N22          C23   1.356       .  A
N22         C616   1.445       .  S
C23          C24   1.384       .  A
C23         C635   1.482       .  S
C24          C25   1.377       .  A
C24          H27   1.082       .  S
C25          C26   1.382       .  A
C25          H28   1.082       .  S
N29          C33   1.353       .  A
N29          C30   1.357       .  A
N29          N36   1.424   1_455  S
C30          C31   1.385       .  A
C30         C563   1.500       .  S
C31          C32   1.378       .  A
C31          H34   1.083       .  S
C32          C33   1.387       .  A
C32          H35   1.082       .  S
C33         C587   1.510       .  S
N36          C40   1.354       .  A
N36          C37   1.358       .  A
C37          C38   1.385       .  A
C37         C515   1.497       .  S
C38          C39   1.377       .  A
C38          H41   1.083       .  S
C39          C40   1.386       .  A
C39          H42   1.082       .  S
C40         C544   1.504       .  S
C43          N44   1.364   1_455  A
C43          N48   1.365       .  A
C43         C491   1.506       .  S
N44          C45   1.362       .  A
C45          N46   1.357   1_655  A
C45         C467   1.486       .  S
N46          C47   1.357       .  A
C47          N48   1.362       .  A
C47         C448   1.493       .  S
C49          N50   1.357       .  A
C49          N54   1.357       .  A
C49         C419   1.497       .  S
N50          C51   1.359       .  A
C51          N52   1.364       .  A
C51         C472   1.489       .  S
N52          C53   1.363       .  A
C53          N54   1.358       .  A
C53         C395   1.494       .  S
N55          C59   1.345       .  A
N55          N56   1.321       .  A
N55         Cu63   2.060       .  S
N56          C57   1.345       .  A
N56         Cu62   2.079       .  S
C57          C58   1.386       .  A
C57          H60   1.082       .  S
C58          C59   1.381       .  A
C58         C688   1.478       .  S
C59          H61   1.081       .  S
Cu62         N65   2.080       .  S
Cu63         N73   2.061       .  S
Cu64         N66   2.100       .  S
Cu64         N72   2.099       .  S
N65          C69   1.346       .  A
N65          N66   1.323       .  A
N66          C67   1.348       .  A
C67          C68   1.392       .  A
C67          H70   1.081       .  S
C68          C69   1.387       .  A
C68         C611   1.498       .  S
C69          H71   1.083       .  S
N72          C76   1.351       .  A
N72          N73   1.321       .  A
N73          C74   1.341       .  A
C74          C75   1.384       .  A
C74          H77   1.079       .  S
C75          C76   1.393       .  A
C75         C424   1.492       .  S
C76          H78   1.080       .  S
N79          C83   1.346       .  A
N79          N80   1.323       .  A
N79         Cu87   2.067   1_655  S
N80          C81   1.346       .  A
N80         Cu86   2.098       .  S
C81          C82   1.387       .  A
C81          H84   1.082       .  S
C82          C83   1.382       .  A
C82         C520   1.482       .  S
C83          H85   1.082   1_655  S
Cu86         N89   2.098       .  S
Cu87         N97   2.068       .  S
Cu88         N90   2.086       .  S
Cu88         N96   2.086       .  S
N89          C93   1.350       .  A
N89          N90   1.322   1_655  A
N90          C91   1.346       .  A
C91          C92   1.388   1_455  A
C91          H94   1.081       .  S
C92          C93   1.394       .  A
C92         C592   1.500       .  S
C93          H95   1.081       .  S
N96         C100   1.348       .  A
N96          N97   1.321       .  A
N97          C98   1.343       .  A
C98          C99   1.385       .  A
C98         H101   1.080       .  S
C99         C100   1.390       .  A
C99         C496   1.489       .  S
C100        H102   1.082       .  S
C103        N104   1.364   1_545  A
C103        N108   1.360       .  A
C103        C371   1.504       .  S
N104        C105   1.363       .  A
C105        N106   1.362   1_565  A
C105        C443   1.497       .  S
N106        C107   1.360       .  A
C107        N108   1.358       .  A
C107        C352   1.491       .  S
C109        N110   1.362       .  A
C109        N114   1.357       .  A
C109        C328   1.495       .  S
N110        C111   1.363       .  A
C111        N112   1.364       .  A
C111        C347   1.491       .  S
N112        C113   1.360       .  A
C113        N114   1.356       .  A
C113        C299   1.483       .  S
C115        N116   1.359   1_455  A
C115        N120   1.365       .  A
C115        C280   1.497       .  S
N116        C117   1.356       .  A
C117        N118   1.356   1_655  A
C117        C251   1.484       .  S
N118        C119   1.359       .  A
C119        N120   1.363       .  A
C119        C304   1.495       .  S
N121        C125   1.344       .  A
N121        N122   1.321       .  A
N121       Cu129   2.066       .  S
N122        C123   1.346       .  A
N122       Cu128   2.084       .  S
C123        C124   1.389       .  A
C123        H126   1.083       .  S
C124        C125   1.384       .  A
C124        C568   1.487       .  S
C125        H127   1.081       .  S
Cu128       N131   2.084       .  S
Cu129       N139   2.066       .  S
Cu130       N132   2.081       .  S
Cu130       N138   2.080       .  S
N131        C135   1.345       .  A
N131        N132   1.322       .  A
N132        C133   1.347       .  A
C133        C134   1.388       .  A
C133        H136   1.081       .  S
C134        C135   1.388       .  A
C134        C539   1.492       .  S
C135        H137   1.083       .  S
N138        C142   1.347       .  A
N138        N139   1.321       .  A
N139        C140   1.342       .  A
C140        C141   1.384       .  A
C140        H143   1.079       .  S
C141        C142   1.388       .  A
C141        C275   1.486       .  S
C142        H144   1.079       .  S
N145        C149   1.347       .  A
N145        N146   1.323       .  A
N145       Cu153   2.083       .  S
N146        C147   1.350       .  A
N146       Cu152   2.106       .  S
C147        C148   1.394       .  A
C147        H150   1.081       .  S
C148        C149   1.386       .  A
C148        C755   1.498       .  S
C149        H151   1.081       .  S
Cu152       N155   2.106       .  S
Cu153       N163   2.084       .  S
Cu154       N156   2.087       .  S
Cu154       N162   2.087       .  S
N155        C159   1.350       .  A
N155        N156   1.323       .  A
N156        C157   1.347       .  A
C157        C158   1.389       .  A
C157        H160   1.081       .  S
C158        C159   1.394       .  A
C158        C712   1.502       .  S
C159        H161   1.082       .  S
N162        C166   1.348       .  A
N162        N163   1.321       .  A
N163        C164   1.346       .  A
C164        C165   1.389       .  A
C164        H167   1.081       .  S
C165        C166   1.390       .  A
C165        C376   1.496       .  S
C166        H168   1.080       .  S
C169        N170   1.361   1_545  A
C169        N174   1.360       .  A
C169        C227   1.499       .  S
N170        C171   1.362       .  A
C171        N172   1.359   1_565  A
C171        C400   1.491       .  S
N172        C173   1.358       .  A
C173        N174   1.359       .  A
C173        C256   1.494       .  S
N175        C179   1.345       .  A
N175        N176   1.322       .  A
N175       Cu183   2.076       .  S
N176        C177   1.349       .  A
N176       Cu182   2.109       .  S
C177        C178   1.396       .  A
C177        H180   1.081       .  S
C178        C179   1.388       .  A
C178        C731   1.503       .  S
C179        H181   1.080       .  S
Cu182       N185   2.109       .  S
Cu183       N193   2.076       .  S
Cu184       N186   2.073       .  S
Cu184       N192   2.073       .  S
N185        C189   1.350       .  A
N185        N186   1.322       .  A
N186        C187   1.344       .  A
C187        C188   1.386       .  A
C187        H190   1.081       .  S
C188        C189   1.397       .  A
C188        C784   1.501       .  S
C189        H191   1.079       .  S
N192        C196   1.346       .  A
N192        N193   1.320       .  A
N193        C194   1.346       .  A
C194        C195   1.386       .  A
C194        H197   1.079       .  S
C195        C196   1.387       .  A
C195        C232   1.486       .  S
C196        H198   1.079       .  S
N199        C203   1.344       .  A
N199        N200   1.319       .  A
N199       Cu207   2.069       .  S
N200        C201   1.345       .  A
N200       Cu206   2.069       .  S
C201        C202   1.387       .  A
C201        H204   1.082       .  S
C202        C203   1.388       .  A
C202        C640   1.487       .  S
C203        H205   1.082       .  S
Cu206       N209   2.070       .  S
Cu207       N217   2.069       .  S
Cu208       N210   2.103       .  S
Cu208       N216   2.103       .  S
N209        C213   1.342       .  A
N209        N210   1.324       .  A
N210        C211   1.352       .  A
C211        C212   1.390       .  A
C211        H214   1.081       .  S
C212        C213   1.382       .  A
C212        C659   1.488       .  S
C213        H215   1.082       .  S
N216        C220   1.350       .  A
N216        N217   1.323       .  A
N217        C218   1.344       .  A
C218        C219   1.382       .  A
C218        H221   1.080       .  S
C219        C220   1.391       .  A
C219        C323   1.490       .  S
C220        H222   1.082       .  S
C223        C224   1.410       .  A
C223        C228   1.401       .  A
C223        C237   1.444       .  S
C224        C225   1.404   1_545  A
C224        C229   1.493       .  S
C225        C226   1.405       .  A
C225        H244   1.084       .  S
C226        C227   1.420   1_565  A
C226        C238   1.443       .  S
C227        C228   1.410       .  A
C228        H243   1.084       .  S
C229        C230   1.405       .  A
C229        C234   1.412       .  A
C230        C231   1.403       .  A
C230        H245   1.085       .  S
C231        C232   1.414       .  A
C231        C235   1.444       .  S
C232        C233   1.405       .  A
C233        C234   1.402       .  A
C233        H246   1.085   1_545  S
C234        C236   1.443   1_545  S
C235        N239   1.157       .  T
C236        N240   1.157       .  T
C237        N242   1.157       .  T
C238        N241   1.157       .  T
C247        C248   1.414       .  A
C247        C252   1.400       .  A
C247        C261   1.444       .  S
C248        C249   1.406       .  A
C248        C253   1.495       .  S
C249        C250   1.403       .  A
C249        H268   1.084       .  S
C250        C251   1.414       .  A
C250        C262   1.444       .  S
C251        C252   1.404       .  A
C252        H267   1.085       .  S
C253        C254   1.404       .  A
C253        C258   1.412       .  A
C254        C255   1.402       .  A
C254        H269   1.084       .  S
C255        C256   1.419       .  A
C255        C259   1.444       .  S
C256        C257   1.408       .  A
C257        C258   1.401       .  A
C257        H270   1.084       .  S
C258        C260   1.444       .  S
C259        N263   1.158       .  T
C260        N264   1.157       .  T
C261        N266   1.157       .  T
C262        N265   1.157       .  T
C271        C272   1.408       .  A
C271        C276   1.399       .  A
C271        C285   1.444   1_455  S
C272        C273   1.403       .  A
C272        C277   1.484       .  S
C273        C274   1.402       .  A
C273        H292   1.086       .  S
C274        C275   1.415       .  A
C274        C286   1.443       .  S
C275        C276   1.407       .  A
C276        H291   1.085       .  S
C277        C278   1.399       .  A
C277        C282   1.408       .  A
C278        C279   1.401   1_455  A
C278        H293   1.086   1_455  S
C279        C280   1.423   1_655  A
C279        C283   1.444       .  S
C280        C281   1.409       .  A
C281        C282   1.401       .  A
C281        H294   1.082       .  S
C282        C284   1.444       .  S
C283        N287   1.158       .  T
C284        N288   1.157       .  T
C285        N290   1.157       .  T
C286        N289   1.157       .  T
C295        C296   1.412       .  A
C295        C300   1.405       .  A
C295        C309   1.444       .  S
C296        C297   1.400       .  A
C296        C301   1.486       .  S
C297        C298   1.400       .  A
C297        H316   1.085       .  S
C298        C299   1.414       .  A
C298        C310   1.444       .  S
C299        C300   1.405       .  A
C300        H315   1.084       .  S
C301        C302   1.402       .  A
C301        C306   1.406       .  A
C302        C303   1.405       .  A
C302        H317   1.084       .  S
C303        C304   1.418       .  A
C303        C307   1.443       .  S
C304        C305   1.410       .  A
C305        C306   1.400       .  A
C305        H318   1.084       .  S
C306        C308   1.444       .  S
C307        N311   1.157       .  T
C308        N312   1.157       .  T
C309        N314   1.157       .  T
C310        N313   1.157       .  T
C319        C320   1.408       .  A
C319        C324   1.403       .  A
C319        C333   1.444       .  S
C320        C321   1.402       .  A
C320        C325   1.486       .  S
C321        C322   1.404       .  A
C321        H340   1.085       .  S
C322        C323   1.414       .  A
C322        C334   1.443       .  S
C323        C324   1.408       .  A
C324        H339   1.085       .  S
C325        C326   1.400       .  A
C325        C330   1.407       .  A
C326        C327   1.403       .  A
C326        H341   1.084       .  S
C327        C328   1.421       .  A
C327        C331   1.445       .  S
C328        C329   1.408       .  A
C329        C330   1.403       .  A
C329        H342   1.084       .  S
C330        C332   1.443       .  S
C331        N335   1.158       .  T
C332        N336   1.157       .  T
C333        N338   1.157       .  T
C334        N337   1.157       .  T
C343        C344   1.410       .  A
C343        C348   1.405       .  A
C343        C357   1.444       .  S
C344        C345   1.402       .  A
C344        C349   1.490       .  S
C345        C346   1.403       .  A
C345        H364   1.084       .  S
C346        C347   1.416       .  A
C346        C358   1.444       .  S
C347        C348   1.408       .  A
C348        H363   1.084       .  S
C349        C350   1.403       .  A
C349        C354   1.410       .  A
C350        C351   1.404       .  A
C350        H365   1.085       .  S
C351        C352   1.416       .  A
C351        C355   1.443       .  S
C352        C353   1.407       .  A
C353        C354   1.403       .  A
C353        H366   1.084       .  S
C354        C356   1.444       .  S
C355        N359   1.157       .  T
C356        N360   1.157       .  T
C357        N362   1.157       .  T
C358        N361   1.157       .  T
C367        C368   1.409   1_565  A
C367        C372   1.406       .  A
C367        C381   1.443       .  S
C368        C369   1.400       .  A
C368        C373   1.492       .  S
C369        C370   1.403       .  A
C369        H388   1.085       .  S
C370        C371   1.424       .  A
C370        C382   1.444       .  S
C371        C372   1.412   1_545  A
C372        H387   1.084       .  S
C373        C374   1.401       .  A
C373        C378   1.411       .  A
C374        C375   1.403       .  A
C374        H389   1.087       .  S
C375        C376   1.418       .  A
C375        C379   1.443       .  S
C376        C377   1.409       .  A
C377        C378   1.406       .  A
C377        H390   1.086   1_545  S
C378        C380   1.444   1_545  S
C379        N383   1.157       .  T
C380        N384   1.157       .  T
C381        N386   1.157       .  T
C382        N385   1.158       .  T
C391        C392   1.410       .  A
C391        C396   1.399       .  A
C391        C405   1.445       .  S
C392        C393   1.406       .  A
C392        C397   1.493       .  S
C393        C394   1.405       .  A
C393        H412   1.085       .  S
C394        C395   1.416       .  A
C394        C406   1.443       .  S
C395        C396   1.409       .  A
C396        H411   1.085       .  S
C397        C398   1.403       .  A
C397        C402   1.411       .  A
C398        C399   1.401       .  A
C398        H413   1.084       .  S
C399        C400   1.416       .  A
C399        C403   1.444       .  S
C400        C401   1.409       .  A
C401        C402   1.404       .  A
C401        H414   1.084       .  S
C402        C404   1.445       .  S
C403        N407   1.157       .  T
C404        N408   1.157       .  T
C405        N410   1.157       .  T
C406        N409   1.157       .  T
C415        C416   1.413       .  A
C415        C420   1.400       .  A
C415        C429   1.445       .  S
C416        C417   1.404       .  A
C416        C421   1.497       .  S
C417        C418   1.402       .  A
C417        H436   1.085       .  S
C418        C419   1.419       .  A
C418        C430   1.444       .  S
C419        C420   1.409       .  A
C420        H435   1.085       .  S
C421        C422   1.403       .  A
C421        C426   1.416       .  A
C422        C423   1.400       .  A
C422        H437   1.085       .  S
C423        C424   1.418       .  A
C423        C427   1.444       .  S
C424        C425   1.405       .  A
C425        C426   1.404       .  A
C425        H438   1.084       .  S
C426        C428   1.444       .  S
C427        N431   1.157       .  T
C428        N432   1.157       .  T
C429        N434   1.157       .  T
C430        N433   1.157       .  T
C439        C440   1.410       .  A
C439        C444   1.403       .  A
C439        C453   1.444       .  S
C440        C441   1.403       .  A
C440        C445   1.492       .  S
C441        C442   1.405       .  A
C441        H460   1.085       .  S
C442        C443   1.418       .  A
C442        C454   1.443       .  S
C443        C444   1.409       .  A
C444        H459   1.083       .  S
C445        C446   1.402       .  A
C445        C450   1.411       .  A
C446        C447   1.404       .  A
C446        H461   1.084       .  S
C447        C448   1.418       .  A
C447        C451   1.444       .  S
C448        C449   1.407       .  A
C449        C450   1.405       .  A
C449        H462   1.084       .  S
C450        C452   1.443       .  S
C451        N455   1.157       .  T
C452        N456   1.157       .  T
C453        N458   1.157       .  T
C454        N457   1.157       .  T
C463        C464   1.408       .  A
C463        C468   1.401       .  A
C463        C477   1.444       .  S
C464        C465   1.404       .  A
C464        C469   1.487       .  S
C465        C466   1.406       .  A
C465        H484   1.085       .  S
C466        C467   1.414       .  A
C466        C478   1.443       .  S
C467        C468   1.405       .  A
C468        H483   1.084       .  S
C469        C470   1.400       .  A
C469        C474   1.410       .  A
C470        C471   1.402       .  A
C470        H485   1.085       .  S
C471        C472   1.417       .  A
C471        C475   1.444       .  S
C472        C473   1.406       .  A
C473        C474   1.404       .  A
C473        H486   1.083       .  S
C474        C476   1.443       .  S
C475        N479   1.157       .  T
C476        N480   1.157       .  T
C477        N482   1.157       .  T
C478        N481   1.157       .  T
C487        C488   1.409       .  A
C487        C492   1.405       .  A
C487        C501   1.444       .  S
C488        C489   1.401   1_455  A
C488        C493   1.493       .  S
C489        C490   1.402       .  A
C489        H508   1.086       .  S
C490        C491   1.422   1_655  A
C490        C502   1.442       .  S
C491        C492   1.413       .  A
C492        H507   1.084       .  S
C493        C494   1.405       .  A
C493        C498   1.411       .  A
C494        C495   1.406       .  A
C494        H509   1.085       .  S
C495        C496   1.415       .  A
C495        C499   1.444       .  S
C496        C497   1.405       .  A
C497        C498   1.400       .  A
C497        H510   1.085   1_455  S
C498        C500   1.444   1_455  S
C499        N503   1.157       .  T
C500        N504   1.157       .  T
C501        N506   1.157       .  T
C502        N505   1.157       .  T
C511        C512   1.409       .  A
C511        C516   1.407       .  A
C511        C525   1.442   1_655  S
C512        C513   1.397       .  A
C512        C517   1.485       .  S
C513        C514   1.394       .  A
C513        H532   1.085       .  S
C514        C515   1.423       .  A
C514        C526   1.445       .  S
C515        C516   1.405       .  A
C516        H531   1.079       .  S
C517        C518   1.403       .  A
C517        C522   1.410   1_655  A
C518        C519   1.404       .  A
C518        H533   1.085       .  S
C519        C520   1.415       .  A
C519        C523   1.443       .  S
C520        C521   1.403   1_655  A
C521        C522   1.399       .  A
C521        H534   1.085       .  S
C522        C524   1.444       .  S
C523        N527   1.157       .  T
C524        N528   1.157       .  T
C525        N530   1.157       .  T
C526        N529   1.157       .  T
C535        C536   1.409   1_655  A
C535        C540   1.399       .  A
C535        C549   1.444       .  S
C536        C537   1.401       .  A
C536        C541   1.485       .  S
C537        C538   1.405       .  A
C537        H556   1.085       .  S
C538        C539   1.418       .  A
C538        C550   1.443       .  S
C539        C540   1.407   1_455  A
C540        H555   1.085       .  S
C541        C542   1.398       .  A
C541        C546   1.406   1_455  A
C542        C543   1.402       .  A
C542        H557   1.086       .  S
C543        C544   1.426   1_455  A
C543        C547   1.444       .  S
C544        C545   1.410       .  A
C545        C546   1.402       .  A
C545        H558   1.084       .  S
C546        C548   1.443       .  S
C547        N551   1.158       .  T
C548        N552   1.157       .  T
C549        N554   1.157       .  T
C550        N553   1.157       .  T
C559        C560   1.410   1_554  A
C559        C564   1.408       .  A
C559        C573   1.443   1_455  S
C560        C561   1.394       .  A
C560        C565   1.484       .  S
C561        C562   1.394   1_556  A
C561        H580   1.086       .  S
C562        C563   1.425       .  A
C562        C574   1.444   1_554  S
C563        C564   1.407       .  A
C564        H579   1.077       .  S
C565        C566   1.403   1_455  A
C565        C570   1.408       .  A
C566        C567   1.402       .  A
C566        H581   1.085       .  S
C567        C568   1.414   1_655  A
C567        C571   1.443       .  S
C568        C569   1.407       .  A
C569        C570   1.402       .  A
C569        H582   1.085       .  S
C570        C572   1.444       .  S
C571        N575   1.157       .  T
C572        N576   1.157       .  T
C573        N578   1.157       .  T
C574        N577   1.157       .  T
C583        C584   1.410   1_554  A
C583        C588   1.403       .  A
C583        C597   1.443   1_554  S
C584        C585   1.400   1_455  A
C584        C589   1.494       .  S
C585        C586   1.405   1_556  A
C585        H604   1.086       .  S
C586        C587   1.426   1_655  A
C586        C598   1.444       .  S
C587        C588   1.409       .  A
C588        H603   1.084       .  S
C589        C590   1.403       .  A
C589        C594   1.409   1_455  A
C590        C591   1.406       .  A
C590        H605   1.085       .  S
C591        C592   1.418   1_455  A
C591        C595   1.443       .  S
C592        C593   1.410       .  A
C593        C594   1.405       .  A
C593        H606   1.084       .  S
C594        C596   1.444       .  S
C595        N599   1.157       .  T
C596        N600   1.157       .  T
C597        N602   1.157       .  T
C598        N601   1.158       .  T
C607        C608   1.412       .  A
C607        C612   1.405       .  A
C607        C621   1.444       .  S
C608        C609   1.403       .  A
C608        C613   1.496       .  S
C609        C610   1.405       .  A
C609        H628   1.085       .  S
C610        C611   1.417       .  A
C610        C622   1.442       .  S
C611        C612   1.408       .  A
C612        H627   1.084       .  S
C613        C614   1.407       .  A
C613        C618   1.413       .  A
C614        C615   1.406       .  A
C614        H629   1.085       .  S
C615        C616   1.411   1_556  A
C615        C619   1.442       .  S
C616        C617   1.402       .  A
C617        C618   1.401   1_554  A
C617        H630   1.084       .  S
C618        C620   1.443       .  S
C619        N623   1.157       .  T
C620        N624   1.157       .  T
C621        N626   1.157       .  T
C622        N625   1.157       .  T
C631        C632   1.409       .  A
C631        C636   1.397   1_556  A
C631        C645   1.445       .  S
C632        C633   1.403       .  A
C632        C637   1.482       .  S
C633        C634   1.403       .  A
C633        H652   1.084       .  S
C634        C635   1.411   1_556  A
C634        C646   1.442       .  S
C635        C636   1.404       .  A
C636        H651   1.084       .  S
C637        C638   1.400       .  A
C637        C642   1.409       .  A
C638        C639   1.400       .  A
C638        H653   1.085       .  S
C639        C640   1.415       .  A
C639        C643   1.443       .  S
C640        C641   1.407       .  A
C641        C642   1.401       .  A
C641        H654   1.084       .  S
C642        C644   1.444       .  S
C643        N647   1.157       .  T
C644        N648   1.157       .  T
C645        N650   1.157       .  T
C646        N649   1.157       .  T
C655        C656   1.410       .  A
C655        C660   1.399       .  A
C655        C669   1.445       .  S
C656        C657   1.405       .  A
C656        C661   1.489       .  S
C657        C658   1.409       .  A
C657        H676   1.084       .  S
C658        C659   1.415       .  A
C658        C670   1.443       .  S
C659        C660   1.404       .  A
C660        H675   1.084       .  S
C661        C662   1.399       .  A
C661        C666   1.412       .  A
C662        C663   1.396       .  A
C662        H677   1.085       .  S
C663        C664   1.417       .  A
C663        C667   1.445       .  S
C664        C665   1.407       .  A
C665        C666   1.410       .  A
C665        H678   1.085       .  S
C666        C668   1.442       .  S
C667        N671   1.157       .  T
C668        N672   1.157       .  T
C669        N674   1.157       .  T
C670        N673   1.157       .  T
C679        C680   1.408       .  A
C679        C684   1.393       .  A
C679        C693   1.445       .  S
C680        C681   1.405       .  A
C680        C685   1.482       .  S
C681        C682   1.406       .  A
C681        H700   1.084       .  S
C682        C683   1.413       .  A
C682        C694   1.443       .  S
C683        C684   1.407       .  A
C684        H699   1.082       .  S
C685        C686   1.403       .  A
C685        C690   1.408       .  A
C686        C687   1.395       .  A
C686        H701   1.085       .  S
C687        C688   1.410       .  A
C687        C691   1.444       .  S
C688        C689   1.407       .  A
C689        C690   1.405       .  A
C689        H702   1.084       .  S
C690        C692   1.443       .  S
C691        N695   1.157       .  T
C692        N696   1.157       .  T
C693        N698   1.157       .  T
C694        N697   1.157       .  T
C703        C704   1.409       .  A
C703        C708   1.406   1_545  A
C703        C717   1.443   1_545  S
C704        C705   1.402       .  A
C704        C709   1.493   1_554  S
C705        C706   1.404       .  A
C705        H724   1.085       .  S
C706        C707   1.414       .  A
C706        C718   1.439       .  S
C707        C708   1.410   1_545  A
C708        H723   1.085       .  S
C709        C710   1.401       .  A
C709        C714   1.412       .  A
C710        C711   1.408       .  A
C710        H725   1.085   1_556  S
C711        C712   1.422       .  A
C711        C715   1.442       .  S
C712        C713   1.407       .  A
C713        C714   1.403       .  A
C713        H726   1.085       .  S
C714        C716   1.445       .  S
C715        N719   1.157       .  T
C716        N720   1.157   1_545  T
C717        N722   1.157       .  T
C718        N721   1.156       .  T
C727        C728   1.414       .  A
C727        C732   1.404       .  A
C727        C741   1.444       .  S
C728        C729   1.403       .  A
C728        C733   1.499   1_556  S
C729        C730   1.406       .  A
C729        H748   1.086   1_545  S
C730        C731   1.422       .  A
C730        C742   1.443   1_545  S
C731        C732   1.407       .  A
C732        H747   1.084       .  S
C733        C734   1.403   1_545  A
C733        C738   1.414       .  A
C734        C735   1.401       .  A
C734        H749   1.084   1_554  S
C735        C736   1.417       .  A
C735        C739   1.445       .  S
C736        C737   1.403   1_565  A
C737        C738   1.407       .  A
C737        H750   1.079       .  S
C738        C740   1.443       .  S
C739        N743   1.157       .  T
C740        N744   1.157       .  T
C741        N746   1.157       .  T
C742        N745   1.158       .  T
C751        C752   1.410       .  A
C751        C756   1.408       .  A
C751        C765   1.443       .  S
C752        C753   1.405   1_545  A
C752        C757   1.499   1_545  S
C753        C754   1.404       .  A
C753        H772   1.085       .  S
C754        C755   1.415   1_565  A
C754        C766   1.443       .  S
C755        C756   1.410       .  A
C756        H771   1.084       .  S
C757        C758   1.407   1_565  A
C757        C762   1.411       .  A
C758        C759   1.409       .  A
C758        H773   1.085       .  S
C759        C760   1.415   1_545  A
C759        C763   1.441       .  S
C760        C761   1.408       .  A
C761        C762   1.400       .  A
C761        H774   1.085       .  S
C762        C764   1.444       .  S
C763        N767   1.157       .  T
C764        N768   1.157       .  T
C765        N770   1.157       .  T
C766        N769   1.157       .  T
C775        C776   1.410       .  A
C775        C780   1.403       .  A
C775        C789   1.444       .  S
C776        C777   1.403       .  A
C776        C781   1.493       .  S
C777        C778   1.405   1_545  A
C777        H796   1.085       .  S
C778        C779   1.417   1_565  A
C778        C790   1.444       .  S
C779        C780   1.405       .  A
C780        H795   1.079       .  S
C781        C782   1.403       .  A
C781        C786   1.407       .  A
C782        C783   1.401       .  A
C782        H797   1.085       .  S
C783        C784   1.417       .  A
C783        C787   1.442       .  S
C784        C785   1.413       .  A
C785        C786   1.407       .  A
C785        H798   1.083       .  S
C786        C788   1.443       .  S
C787        N791   1.157   1_545  T
C788        N792   1.157       .  T
C789        N794   1.157       .  T
C790        N793   1.157       .  T
