geometry optimzed in LAMMPS
_audit_creation_date              2020-12-01 
_audit_creation_method            'lammps2cif' 
_symmetry_space_group_name_H-M    'P1' 
_symmetry_Int_Tables_number       1 
_symmetry_cell_setting            triclinic 
loop_ 
_symmetry_equiv_pos_as_xyz 
  x,y,z 
_cell_length_a                    29.25843822 
_cell_length_b                    29.455115740218815 
_cell_length_c                    25.19837529586976 
_cell_angle_alpha                 90.25276902502763 
_cell_angle_beta                  90.56105987890875 
_cell_angle_gamma                 119.89729042756417 
loop_ 
_atom_site_label 
_atom_site_type_symbol 
_atom_site_fract_x 
_atom_site_fract_y 
_atom_site_fract_z 
_atom_site_charge 
N1          N  0.02164713  0.45825863  0.05293172    -0.36300
N2          N  0.02009052  0.45314170  0.93751789    -0.56800
N3          N  0.01800121  0.55049303  0.93402644    -0.36300
N4          N  0.01588565  0.55381482  0.04905703    -0.56800
C5          C  0.00900247  0.40786428  0.04449468     0.27300
C6          C  0.00903059  0.46204069  0.10366334     0.27300
C7          C  0.00936180  0.53626339  0.88220271     0.27300
C8          C  0.00521488  0.58835574  0.94105270     0.27300
C9          C  0.02898612  0.41329164  0.94830078     0.35900
C10         C  0.02922950  0.46330469  0.88522702     0.35900
C11         C  0.02380120  0.55276048  0.10183190     0.35900
C12         C  0.02051922  0.60090236  0.03881779     0.35900
C13         C  0.98829620  0.37944188  0.09043729    -0.21600
C14         C  0.98884301  0.41373971  0.12791646    -0.21600
C15         C  0.99151350  0.56590763  0.85591971    -0.21600
C16         C  0.98889505  0.59871973  0.89302693    -0.21600
C17         C  0.04374705  0.39787887  0.90254931    -0.22600
C18         C  0.04402586  0.42970956  0.86254973    -0.22600
C19         C  0.03310522  0.59927126  0.12539941    -0.22600
C20         C  0.03123028  0.62989934  0.08538855    -0.22600
C21         C  0.01913861  0.38770795  0.99774669    -0.18000
C22         C  0.01747928  0.50840479  0.12944332    -0.18000
C23         C  0.01108824  0.61632313  0.98874330    -0.18000
C24         C  0.02002488  0.49951729  0.85715458    -0.18000
H25         H  0.97522005  0.33844882  0.09669275     0.14900
H26         H  0.97591964  0.40412546  0.16847958     0.14900
H27         H  0.98178805  0.56445380  0.81416205     0.14900
H28         H  0.97686086  0.62739479  0.88533279     0.14900
H29         H  0.05245429  0.36639506  0.89828700     0.13200
H30         H  0.05282730  0.42756179  0.82130070     0.13200
H31         H  0.03938298  0.60955283  0.16717801     0.13200
H32         H  0.03582631  0.66849960  0.09020794     0.13200
H33         H  0.04311902  0.48944028  0.02765808     0.26500
H34         H  0.03725577  0.53942516  0.96140545     0.26500
N35         N  0.00393132  0.45489515  0.43706068    -0.36300
N36         N  0.00457898  0.55444546  0.43521111    -0.56800
N37         N  0.01960270  0.56394342  0.54960782    -0.36300
N38         N  0.01474074  0.46262323  0.55113973    -0.56800
C39         C  0.98934128  0.45511938  0.38609426     0.27300
C40         C  0.99270828  0.40553931  0.44843401     0.27300
C41         C  0.00786593  0.60219935  0.53998632     0.27300
C42         C  0.01145701  0.55217359  0.60177434     0.27300
C43         C  0.00866556  0.54774818  0.38268150     0.35900
C44         C  0.01628452  0.60476082  0.44191202     0.35900
C45         C  0.02185440  0.42124586  0.54289126     0.35900
C46         C  0.02941029  0.47806546  0.60194364     0.35900
C47         C  0.96932969  0.40531711  0.36430325    -0.21600
C48         C  0.97055764  0.37379431  0.40396424    -0.21600
C49         C  0.99258739  0.61539234  0.58683620    -0.21600
C50         C  0.99477843  0.58373560  0.62584970    -0.21600
C51         C  0.02223495  0.59375356  0.35594711    -0.22600
C52         C  0.02707238  0.62981288  0.39344305    -0.22600
C53         C  0.04147993  0.41058227  0.58853958    -0.22600
C54         C  0.04616368  0.44654074  0.62603099    -0.22600
C55         C  0.99762566  0.50003912  0.35788097    -0.18000
C56         C  0.00572965  0.38969344  0.49658044    -0.18000
C57         C  0.02202674  0.51610092  0.62854208    -0.18000
C58         C  0.01355579  0.62731355  0.49061467    -0.18000
H59         H  0.95585068  0.39306978  0.32385971     0.14900
H60         H  0.95833793  0.33266770  0.39996478     0.14900
H61         H  0.98157413  0.64512532  0.59240249     0.14900
H62         H  0.98590777  0.58442698  0.66735121     0.14900
H63         H  0.02752725  0.60054183  0.31369898     0.13200
H64         H  0.03695603  0.66980114  0.38581171     0.13200
H65         H  0.05024251  0.37933588  0.59458637     0.13200
H66         H  0.05914033  0.44842267  0.66676548     0.13200
H67         H  0.02648927  0.48828362  0.46058489     0.26500
H68         H  0.03790240  0.55070874  0.52319834     0.26500
O69         O  0.02624213  0.93195818  0.03541186    -0.88000
C70         C  0.09175455  0.03639614  0.91342001     0.88000
Mg71       Mg  0.94538936  0.86935756  0.03358514     1.58100
O72         O  0.06503555  0.08852125  0.02760897    -0.87700
O73         O  0.07922971  0.00008865  0.08434765    -0.75100
C74         C  0.80964378  0.98698579  0.98001384     0.93100
O75         O  0.99733991  0.91245992  0.91051794    -0.74900
O76         O  0.80671550  0.94251911  0.97642209    -0.82400
Mg77       Mg  0.07064048  0.94006615  0.96449690     1.58000
C78         C  0.99348187  0.17931271  0.00462858     0.93000
O79         O  0.14940967  0.96385201  0.00728784    -0.80700
H80         H  0.07841872  0.11011572  0.10407465    -0.06000
C81         C  0.95122887  0.03736942  0.91137726     0.87900
O82         O  0.92080521  0.91807045  0.08607005    -0.75200
O83         O  0.08921139  0.01990684  0.95882377    -0.87900
O84         O  0.03471963  0.17739606  0.99324559    -0.80700
C85         C  0.18169951  0.18425795  0.96563432     0.93100
C86         C  0.19098151  0.00644012  0.02015912     0.93000
Mg87       Mg  0.93018983  0.05284389  0.02468077     1.58000
O88         O  0.85368796  0.02923558  0.97890825    -0.80700
O89         O  0.00277379  0.08214679  0.07927218    -0.74900
O90         O  0.18165340  0.14321704  0.98171196    -0.80700
O91         O  0.05193576  0.85640260  0.97064108    -0.82500
O92         O  0.81702264  0.84619374  0.01330567    -0.80800
C93         C  0.05039919  0.09488317  0.07138208     0.87400
O94         O  0.91175471  0.97170048  0.03321278    -0.87900
O95         O  0.97316097  0.05718301  0.95422069    -0.88000
O96         O  0.91497528  0.98971525  0.90786364    -0.75100
Mg97       Mg  0.12579023  0.06875347  0.02793534     1.58000
O98         O  0.13879603  0.18375507  0.95624449    -0.82500
H99         H  0.03146627  0.92784420  0.11420310    -0.06200
O100        O  0.93267785  0.90141198  0.96151497    -0.87700
H101        H  0.92241977  0.88546509  0.88368140    -0.06000
H102        H  0.89848687  0.96976484  0.11110663    -0.06200
C103        C  0.94922769  0.89868930  0.91741260     0.87400
C104        C  0.04526243  0.95183165  0.07918641     0.88000
C105        C  0.90963527  0.95403335  0.07801822     0.88000
H106        H  0.96359803  0.06089917  0.87597453    -0.06200
O107        O  0.07836623  0.07024552  0.90308598    -0.75200
Mg108      Mg  0.87105470  0.92144475  0.96624309     1.58000
H109        H  0.10407803  0.02042858  0.88151602    -0.06200
C110        C  0.01030159  0.81335893  0.97916245     0.93000
O111        O  0.86012833  0.80344013  0.02950913    -0.82400
C112        C  0.81714520  0.80365945  0.02257852     0.93100
O113        O  0.19006838  0.04854571  0.02761519    -0.82400
Mg114      Mg  0.05399331  0.11904881  0.95402843     1.58200
O115        O  0.96789754  0.81252319  0.99263268    -0.80700
O116        O  0.94993687  0.13807754  0.01400874    -0.82400
O117        O  0.02073914  0.93847356  0.54497370    -0.88000
C118        C  0.08706276  0.04829206  0.42812295     0.88000
Mg119      Mg  0.94016454  0.87615071  0.53822664     1.58100
O120        O  0.06023212  0.09449771  0.54617415    -0.87700
O121        O  0.07518587  0.00386447  0.59623237    -0.75100
C122        C  0.80322427  0.99375141  0.48762253     0.93100
O123        O  0.99700396  0.92387782  0.41825932    -0.74900
O124        O  0.80418101  0.95189226  0.47806179    -0.82400
Mg125      Mg  0.06755328  0.94934925  0.47566791     1.58000
C126        C  0.98650237  0.18536165  0.52796130     0.93000
O127        O  0.14149357  0.96986154  0.52501229    -0.80700
H128        H  0.06945860  0.10894898  0.62432516    -0.06000
C129        C  0.94934557  0.05197825  0.42686020     0.87900
O130        O  0.91272334  0.92122361  0.59271026    -0.75200
O131        O  0.08526519  0.02975930  0.47243578    -0.87900
O132        O  0.02881117  0.18354156  0.52255641    -0.80700
C133        C  0.17736875  0.19486381  0.48566602     0.93100
C134        C  0.18536659  0.01194109  0.53154767     0.93000
Mg135      Mg  0.92311883  0.05882202  0.54116338     1.58000
O136        O  0.84523866  0.03686007  0.49759828    -0.80700
O137        O  0.99538317  0.08452710  0.59630857    -0.74900
O138        O  0.17821981  0.15364755  0.49941802    -0.80700
O139        O  0.05002287  0.86513198  0.47881625    -0.82500
O140        O  0.81483892  0.85720603  0.51472507    -0.80800
C141        C  0.04324231  0.09691475  0.59015132     0.87400
O142        O  0.90503344  0.97799604  0.54351777    -0.87900
O143        O  0.96845073  0.06779737  0.47157588    -0.88000
O144        O  0.91506625  0.00440304  0.41828100    -0.75100
Mg145      Mg  0.12235291  0.07583457  0.54265881     1.58000
O146        O  0.13413779  0.19470052  0.47921919    -0.82500
H147        H  0.02546776  0.93074369  0.62334587    -0.06200
O148        O  0.93221041  0.91391296  0.46827333    -0.87700
H149        H  0.92283626  0.89904782  0.39019552    -0.06000
H150        H  0.88812723  0.97016136  0.62080246    -0.06200
C151        C  0.94910125  0.91129196  0.42433793     0.87400
C152        C  0.03977340  0.95619167  0.58939265     0.88000
C153        C  0.90111670  0.95715828  0.58691401     0.88000
H154        H  0.96321027  0.07891423  0.39405600    -0.06200
O155        O  0.07386520  0.08287019  0.42085115    -0.75200
Mg156      Mg  0.86987647  0.93306326  0.47174260     1.58000
H157        H  0.09891805  0.03381222  0.39453133    -0.06200
C158        C  0.00726800  0.82200939  0.48405674     0.93000
O159        O  0.85534629  0.81127768  0.52733506    -0.82400
C160        C  0.81347715  0.81369138  0.52091500     0.93100
O161        O  0.18749601  0.05589441  0.53593276    -0.82400
Mg162      Mg  0.04919778  0.12925217  0.47573247     1.58200
O163        O  0.96438836  0.82101959  0.49553330    -0.80700
O164        O  0.94242928  0.14372509  0.53362363    -0.82400
N165        N  0.55246169  0.99661442  0.06309917    -0.36300
N166        N  0.45314852  0.99651469  0.06661802    -0.56800
N167        N  0.44954085  0.99863322  0.95201289    -0.36300
N168        N  0.54688818  0.99531329  0.94823474    -0.56800
C169        C  0.53889995  0.98351994  0.11428354     0.27300
C170        C  0.58894621  0.98289628  0.05085647     0.27300
C171        C  0.40054270  0.98940076  0.96306244     0.27300
C172        C  0.45000640  0.98754693  0.89998275     0.27300
C173        C  0.46617902  0.00394848  0.11865248     0.35900
C174        C  0.41298380  0.00624158  0.06031208     0.35900
C175        C  0.59693407  0.00561957  0.95546975     0.35900
C176        C  0.54232712  0.00524720  0.89683730     0.35900
C177        C  0.56767492  0.96191495  0.13523519    -0.21600
C178        C  0.59908630  0.96123898  0.09508314    -0.21600
C179        C  0.36968768  0.97332896  0.91721241    -0.21600
C180        C  0.40090552  0.97200445  0.87736057    -0.21600
C181        C  0.43382594  0.01797278  0.14555246    -0.22600
C182        C  0.40039904  0.01985965  0.10846270    -0.22600
C183        C  0.62452753  0.02278575  0.90854012    -0.22600
C184        C  0.58970753  0.02207367  0.87118963    -0.22600
C185        C  0.50348105  0.99353006  0.14303687    -0.18000
C186        C  0.61518823  0.99229393  0.00163402    -0.18000
C187        C  0.49466475  0.99468667  0.87185843    -0.18000
C188        C  0.38397901  0.99777774  0.01283908    -0.18000
H189        H  0.56631269  0.94825101  0.17530463     0.14900
H190        H  0.62658434  0.94687314  0.09827312     0.14900
H191        H  0.32901479  0.96382673  0.91287114     0.14900
H192        H  0.38901418  0.96147189  0.83627476     0.14900
H193        H  0.43360380  0.02515979  0.18768283     0.13200
H194        H  0.36924383  0.02854834  0.11635155     0.13200
H195        H  0.66489936  0.03280828  0.90145502     0.13200
H196        H  0.59796654  0.03173401  0.82969561     0.13200
H197        H  0.54181125  0.01897939  0.03977850     0.26500
H198        H  0.48228730  0.01707013  0.97703638     0.26500
N199        N  0.53461598  0.98839011  0.44924051    -0.36300
N200        N  0.43577194  0.98855528  0.44859658    -0.56800
N201        N  0.44280776  0.99701289  0.56387363    -0.36300
N202        N  0.53942520  0.99270323  0.56404928    -0.56800
C203        C  0.51883932  0.97413166  0.39830902     0.27300
C204        C  0.57504218  0.97957735  0.45860270     0.27300
C205        C  0.39320067  0.98740190  0.55469610     0.27300
C206        C  0.44579866  0.98616269  0.61546102     0.27300
C207        C  0.44655254  0.99520710  0.39626494     0.35900
C208        C  0.39963271  0.00335477  0.45768043     0.35900
C209        C  0.58838830  0.00091518  0.55503480     0.35900
C210        C  0.53717999  0.00101135  0.61646607     0.35900
C211        C  0.54973501  0.95611714  0.37509332    -0.21600
C212        C  0.58509732  0.95941483  0.41319912    -0.21600
C213        C  0.36440281  0.97048920  0.60101367    -0.21600
C214        C  0.39760092  0.96961058  0.63935475    -0.21600
C215        C  0.41655788  0.01369861  0.37164331    -0.22600
C216        C  0.38716260  0.01942630  0.41078363    -0.22600
C217        C  0.61721451  0.01371677  0.60212735    -0.22600
C218        C  0.58461926  0.01353530  0.64117442    -0.22600
C219        C  0.48167415  0.98270535  0.37058923    -0.18000
C220        C  0.60600754  0.99342384  0.50550353    -0.18000
C221        C  0.49191935  0.99477288  0.64256177    -0.18000
C222        C  0.37458755  0.99767183  0.50686245    -0.18000
H223        H  0.54810255  0.94338362  0.33441780     0.14900
H224        H  0.61568851  0.94943341  0.40764175     0.14900
H225        H  0.32386599  0.96056215  0.60682155     0.14900
H226        H  0.38770557  0.95908627  0.68045475     0.14900
H227        H  0.41587481  0.02204657  0.32994733     0.13200
H228        H  0.35880190  0.03246198  0.40520128     0.13200
H229        H  0.65722851  0.02157219  0.60786435     0.13200
H230        H  0.59458953  0.02147857  0.68294913     0.13200
H231        H  0.52381710  0.00989219  0.47364143     0.26500
H232        H  0.47432691  0.01634876  0.53831937     0.26500
N233        N  0.44394667  0.44471355  0.04370449    -0.36300
N234        N  0.54066492  0.54509948  0.05228418    -0.56800
N235        N  0.54973687  0.54892394  0.93768748    -0.36300
N236        N  0.45089453  0.45033492  0.92892735    -0.56800
C237        C  0.44235320  0.45735940  0.09507627     0.27300
C238        C  0.39485989  0.40672221  0.02948275     0.27300
C239        C  0.58810599  0.59805826  0.95094143     0.27300
C240        C  0.53951240  0.54829027  0.88509623     0.27300
C241        C  0.53463087  0.53038783  0.10357395     0.35900
C242        C  0.59070363  0.58499770  0.04810534     0.35900
C243        C  0.41019531  0.40093624  0.93346166     0.35900
C244        C  0.46482633  0.45637413  0.87739505     0.35900
C245        C  0.39163096  0.42694270  0.11388914    -0.21600
C246        C  0.36159852  0.39483161  0.07242979    -0.21600
C247        C  0.60309841  0.62893339  0.90603834    -0.21600
C248        C  0.57239182  0.59755425  0.86447353    -0.21600
C249        C  0.58088803  0.56119023  0.13209307    -0.22600
C250        C  0.61642307  0.59585424  0.09692023    -0.22600
C251        C  0.39815125  0.37549431  0.88460138    -0.22600
C252        C  0.43236775  0.41080448  0.84897307    -0.22600
C253        C  0.48656432  0.49287130  0.12601208    -0.18000
C254        C  0.38052817  0.38019286  0.97990212    -0.18000
C255        C  0.50365131  0.50364326  0.85479267    -0.18000
C256        C  0.61210879  0.61455663  0.00182398    -0.18000
H257        H  0.37801052  0.42711153  0.15363328     0.14900
H258        H  0.32024518  0.36545884  0.07395186     0.14900
H259        H  0.63339057  0.66967389  0.90341054     0.14900
H260        H  0.57459711  0.60948941  0.82357979     0.14900
H261        H  0.58802705  0.55943327  0.17406408     0.13200
H262        H  0.65636052  0.62612232  0.10639832     0.13200
H263        H  0.36702637  0.33608976  0.87526669     0.13200
H264        H  0.43283125  0.40387209  0.80681402     0.13200
H265        H  0.47785041  0.45658920  0.02171618     0.26500
H266        H  0.53570307  0.51635165  0.96182739     0.26500
N267        N  0.44061887  0.46238909  0.54682137    -0.36300
N268        N  0.44101178  0.46198090  0.43239750    -0.56800
N269        N  0.54081363  0.56048445  0.43345703    -0.36300
N270        N  0.54152957  0.55905084  0.54797010    -0.56800
C271        C  0.40153679  0.41280492  0.53649913     0.27300
C272        C  0.45540359  0.46463357  0.59824495     0.27300
C273        C  0.53812151  0.54402800  0.38276760     0.27300
C274        C  0.59196706  0.59549965  0.44461043     0.27300
C275        C  0.39134031  0.42236966  0.43999856     0.35900
C276        C  0.44397219  0.47455466  0.38059422     0.35900
C277        C  0.52962972  0.55649238  0.59989402     0.35900
C278        C  0.58159674  0.60812710  0.53986336     0.35900
C279        C  0.39095411  0.38325499  0.58212707    -0.21600
C280        C  0.42495021  0.41600024  0.62114812    -0.21600
C281        C  0.58816326  0.56884494  0.36126614    -0.21600
C282        C  0.62231467  0.60099484  0.40060436    -0.21600
C283        C  0.36266689  0.40964797  0.39284070    -0.22600
C284        C  0.39599330  0.44283408  0.35518310    -0.22600
C285        C  0.56233513  0.60403919  0.62496897    -0.22600
C286        C  0.59474329  0.63703078  0.58675900    -0.22600
C287        C  0.37292891  0.39488821  0.48797182    -0.18000
C288        C  0.49277091  0.51049138  0.62575360    -0.18000
C289        C  0.61062915  0.62472769  0.49248502    -0.18000
C290        C  0.49097162  0.50994313  0.35484851    -0.18000
H291        H  0.36122411  0.34258662  0.58701457     0.14900
H292        H  0.42641805  0.40543032  0.66195733     0.14900
H293        H  0.59881011  0.56461803  0.32127787     0.14900
H294        H  0.66442717  0.62650242  0.39686260     0.14900
H295        H  0.32224994  0.37906645  0.38609132     0.13200
H296        H  0.38642900  0.44267862  0.31355284     0.13200
H297        H  0.56320946  0.61375062  0.66658206     0.13200
H298        H  0.62560845  0.67717855  0.59322530     0.13200
H299        H  0.45213945  0.49437241  0.52214538     0.26500
H300        H  0.50869240  0.55292259  0.45686505     0.26500
C301        C  0.47086008  0.52376945  0.77230197    -0.05400
C302        C  0.50378991  0.50742245  0.79592131     0.00500
C303        C  0.53331245  0.49216013  0.76371774    -0.08100
C304        C  0.52918753  0.49437094  0.70822872    -0.05500
C305        C  0.49543463  0.50972042  0.68466653     0.00500
C306        C  0.46585114  0.52485194  0.71683803    -0.08000
C307        C  0.42869123  0.54123699  0.69245959     0.62400
H308        H  0.44831928  0.53471355  0.79789313     0.13100
H309        H  0.55130421  0.48292913  0.68259583     0.13100
C310        C  0.56730771  0.47180431  0.78788115     0.62600
F311        F  0.40398410  0.55485452  0.73079332    -0.22600
F312        F  0.39024610  0.50029528  0.66253094    -0.19900
F313        F  0.45626163  0.58401627  0.66013884    -0.19600
F314        F  0.53559671  0.42452934  0.81234257    -0.19600
F315        F  0.60197592  0.50721549  0.82502430    -0.19900
F316        F  0.59655565  0.46390931  0.74986250    -0.22600
C317        C  0.48034772  0.53526836  0.20852277    -0.05400
C318        C  0.48283254  0.49332611  0.18484047     0.00500
C319        C  0.48963203  0.45777151  0.21696682    -0.08100
C320        C  0.49344206  0.46537233  0.27230581    -0.05500
C321        C  0.49122061  0.50742945  0.29591257     0.00500
C322        C  0.48466376  0.54313687  0.26383862    -0.08000
C323        C  0.48225122  0.58917040  0.28804798     0.62400
H324        H  0.47635242  0.56259283  0.18295750     0.13100
H325        H  0.49767593  0.43820325  0.29789214     0.13100
C326        C  0.49321400  0.41233191  0.19289147     0.62600
F327        F  0.47489220  0.61862320  0.24980002    -0.22600
F328        F  0.52887029  0.62162698  0.31496011    -0.19900
F329        F  0.44085791  0.57124855  0.32306846    -0.19600
F330        F  0.50524537  0.38588666  0.23080385    -0.19600
F331        F  0.53212738  0.43033808  0.15501300    -0.19900
F332        F  0.44545005  0.37720692  0.16945905    -0.22600
C333        C  0.50210357  0.03855754  0.78655810    -0.05400
C334        C  0.49214024  0.99289905  0.81302183     0.00500
C335        C  0.48087303  0.94726812  0.78375165    -0.08100
C336        C  0.48140581  0.94948199  0.72803106    -0.05500
C337        C  0.49191049  0.99538866  0.70152636     0.00500
C338        C  0.50167416  0.04051354  0.73091587    -0.08000
C339        C  0.51073512  0.09013998  0.70369860     0.62400
H340        H  0.50988708  0.07259616  0.81009721     0.13100
H341        H  0.47355333  0.91540323  0.70453265     0.13100
C342        C  0.46812490  0.89665130  0.81135206     0.62600
F343        F  0.52584504  0.13111866  0.73951079    -0.22600
F344        F  0.46466578  0.08120556  0.67873106    -0.19900
F345        F  0.55000320  0.10536892  0.66649305    -0.19600
F346        F  0.42601357  0.88199859  0.84489566    -0.19600
F347        F  0.51137698  0.90360148  0.84063722    -0.19900
F348        F  0.45473652  0.85608228  0.77543462    -0.22600
C349        C  0.46650274  0.94250428  0.22478192    -0.05400
C350        C  0.50241019  0.99033674  0.20179782     0.00500
C351        C  0.53022146  0.03573390  0.23395762    -0.08100
C352        C  0.52105230  0.03168788  0.28876993    -0.05500
C353        C  0.48468533  0.98409176  0.31175512     0.00500
C354        C  0.45704326  0.93850601  0.27965480    -0.08000
C355        C  0.41738021  0.88630589  0.30317740     0.62400
H356        H  0.44490935  0.90868089  0.19897899     0.13100
H357        H  0.54232037  0.06570283  0.31441240     0.13100
C358        C  0.56877477  0.08820751  0.21013129     0.62600
F359        F  0.37728848  0.89081904  0.32661574    -0.22600
F360        F  0.44158268  0.87126709  0.34100919    -0.19900
F361        F  0.39519181  0.84705646  0.26489063    -0.19600
F362        F  0.54266647  0.10385803  0.17523539    -0.19600
F363        F  0.60736224  0.08389102  0.18312876    -0.19900
F364        F  0.59317331  0.12687749  0.24866969    -0.22600
C365        C  0.32181310  0.29968415  0.46521279    -0.05400
C366        C  0.32217984  0.34397798  0.48656413     0.00500
C367        C  0.27421406  0.34023828  0.50238410    -0.08100
C368        C  0.22803772  0.29087186  0.50102059    -0.05500
C369        C  0.22772272  0.24574946  0.48176388     0.00500
C370        C  0.27494441  0.25078115  0.46089463    -0.08000
C371        C  0.27529935  0.20626062  0.43066942     0.62400
H372        H  0.35861547  0.30411069  0.45097731     0.13100
H373        H  0.19160529  0.28715901  0.51548229     0.13100
C374        C  0.27168497  0.38857570  0.51891070     0.62600
F375        F  0.32290643  0.22257718  0.40575045    -0.22600
F376        F  0.23602450  0.18720588  0.39202250    -0.19900
F377        F  0.26695770  0.16635388  0.46466963    -0.19600
F378        F  0.29019189  0.42464855  0.47835341    -0.19600
F379        F  0.30228647  0.41092655  0.56395267    -0.19900
F380        F  0.22066317  0.37686863  0.52969572    -0.22600
C381        C  0.70116413  0.67265365  0.53112253    -0.05400
C382        C  0.66395076  0.67273348  0.49533131     0.00500
C383        C  0.67527607  0.72002010  0.46998144    -0.08100
C384        C  0.72468641  0.76480554  0.47953909    -0.05500
C385        C  0.76165600  0.76485081  0.51575669     0.00500
C386        C  0.74882975  0.71851245  0.54366900    -0.08000
C387        C  0.78323518  0.71806014  0.58891602     0.62400
H388        H  0.69123226  0.63654106  0.55130000     0.13100
H389        H  0.73492898  0.80039908  0.45821752     0.13100
C390        C  0.63535234  0.72416840  0.43418054     0.62600
F391        F  0.75645160  0.67392775  0.61984991    -0.22600
F392        F  0.79863188  0.76137616  0.62154221    -0.19900
F393        F  0.82737855  0.71870372  0.56898188    -0.19600
F394        F  0.58664070  0.70166272  0.45809694    -0.19600
F395        F  0.63072792  0.69924709  0.38625226    -0.19900
F396        F  0.65036064  0.77583700  0.42373807    -0.22600
C397        C  0.23160825  0.96530237  0.50219575    -0.05400
C398        C  0.23467817  0.00895067  0.52892845     0.00500
C399        C  0.28442363  0.04865304  0.54883156    -0.08100
C400        C  0.32946960  0.04495786  0.53740807    -0.05500
C401        C  0.32608354  0.00185635  0.50981540     0.00500
C402        C  0.27625338  0.96034972  0.49352572    -0.08000
C403        C  0.26990745  0.91016961  0.46906137     0.62400
H404        H  0.19366773  0.93473058  0.48758057     0.13100
H405        H  0.36794250  0.07502241  0.55153495     0.13100
C406        C  0.29015639  0.09301479  0.58450496     0.62600
F407        F  0.29162637  0.88872714  0.50263910    -0.22600
F408        F  0.29481360  0.92041811  0.42075349    -0.19900
F409        F  0.21744426  0.87307529  0.46051888    -0.19600
F410        F  0.25397440  0.07292468  0.62501478    -0.19600
F411        F  0.28205505  0.12816313  0.55564260    -0.19900
F412        F  0.33993853  0.12036986  0.60754203    -0.22600
C413        C  0.66085381  0.95248024  0.52029012    -0.05400
C414        C  0.65782623  0.99581925  0.50275782     0.00500
C415        C  0.70268773  0.03924771  0.48124818    -0.08100
C416        C  0.74885713  0.03625387  0.47475788    -0.05500
C417        C  0.75176183  0.99211464  0.49101797     0.00500
C418        C  0.70766622  0.95048448  0.51664396    -0.08000
C419        C  0.71049550  0.90574163  0.54337992     0.62400
H420        H  0.62601758  0.92029039  0.53744770     0.13100
H421        H  0.78336988  0.06877423  0.45756393     0.13100
C422        C  0.70194961  0.08892990  0.46702067     0.62600
F423        F  0.66596519  0.87488578  0.57282760    -0.22600
F424        F  0.75353497  0.92568053  0.57769947    -0.19900
F425        F  0.71480535  0.87395025  0.50567107    -0.19600
F426        F  0.66619372  0.07896355  0.42617618    -0.19600
F427        F  0.75091511  0.12819386  0.45101926    -0.19900
F428        F  0.68753614  0.10709478  0.51088061    -0.22600
C429        C  0.28720566  0.32883612  0.94998205    -0.05400
C430        C  0.33031369  0.32940519  0.97522508     0.00500
C431        C  0.32634787  0.28206454  0.99235477    -0.08100
C432        C  0.27792531  0.23543709  0.98568574    -0.05500
C433        C  0.23322905  0.23453160  0.96276314     0.00500
C434        C  0.23858300  0.28229176  0.94296086    -0.08000
C435        C  0.19395031  0.28535648  0.91488222     0.62400
H436        H  0.29207488  0.36577962  0.93628909     0.13100
H437        H  0.27441502  0.19944522  0.00033748     0.13100
C438        C  0.37314334  0.28110334  0.01788770     0.62600
F439        F  0.21120241  0.33366895  0.89170777    -0.22600
F440        F  0.15545891  0.27774721  0.95092983    -0.19900
F441        F  0.17253338  0.24787284  0.87490430    -0.19600
F442        F  0.38620722  0.30819003  0.06562539    -0.19600
F443        F  0.41602555  0.30405150  0.98464325    -0.19900
F444        F  0.36241285  0.23068480  0.02798038    -0.22600
C445        C  0.71965530  0.75527511  0.03397038    -0.05400
C446        C  0.76551628  0.75330125  0.02176535     0.00500
C447        C  0.75988984  0.70496634  0.00295766    -0.08100
C448        C  0.70886082  0.66169205  0.99553492    -0.05500
C449        C  0.66353087  0.66424685  0.00707989     0.00500
C450        C  0.66875174  0.71157379  0.02752726    -0.08000
C451        C  0.62265488  0.71872083  0.04306056     0.62400
H452        H  0.72350273  0.79175766  0.04846562     0.13100
H453        H  0.70364273  0.62461727  0.98132295     0.13100
C454        C  0.80684952  0.69823638  0.99023647     0.62600
F455        F  0.62704076  0.73146635  0.09649014    -0.22600
F456        F  0.57400245  0.67475241  0.03411054    -0.19900
F457        F  0.62425758  0.75932483  0.01421315    -0.19600
F458        F  0.83619250  0.70533140  0.03604142    -0.19600
F459        F  0.83784992  0.73404913  0.95248327    -0.19900
F460        F  0.79150175  0.64870266  0.97030931    -0.22600
C461        C  0.24076523  0.95955737  0.03394313    -0.05400
C462        C  0.24207071  0.00695581  0.02277471     0.00500
C463        C  0.29088314  0.05149727  0.00850740    -0.08100
C464        C  0.33591473  0.04625515  0.00521314    -0.05500
C465        C  0.33392737  0.99880647  0.01559320     0.00500
C466        C  0.28607631  0.95471965  0.03071988    -0.08000
C467        C  0.28313718  0.90296653  0.04328763     0.62400
H468        H  0.20373226  0.92608238  0.04522881     0.13100
H469        H  0.37358426  0.07936789  0.99464117     0.13100
C470        C  0.29616386  0.10429807  0.99584185     0.62600
F471        F  0.31331541  0.90863731  0.08802468    -0.22600
F472        F  0.30187894  0.88709320  0.00111003    -0.19900
F473        F  0.23198273  0.86382253  0.05275242    -0.19600
F474        F  0.28546036  0.12437957  0.04072772    -0.19600
F475        F  0.26171121  0.09894710  0.95511613    -0.19900
F476        F  0.34653020  0.14026385  0.97977184    -0.22600
C477        C  0.71637883  0.95495421  0.95585825    -0.05400
C478        C  0.76065712  0.98952143  0.98626202     0.00500
C479        C  0.75567076  0.02185790  0.02528976    -0.08100
C480        C  0.70762258  0.02172427  0.02849700    -0.05500
C481        C  0.66342229  0.98731436  0.99777291     0.00500
C482        C  0.66719263  0.95155913  0.96247586    -0.08000
C483        C  0.62103360  0.90878852  0.93122197     0.62400
H484        H  0.71985661  0.92902252  0.92755178     0.13100
H485        H  0.70375784  0.04805783  0.05583557     0.13100
C486        C  0.79884665  0.05324298  0.06626786     0.62600
F487        F  0.62066380  0.86192833  0.93721423    -0.22600
F488        F  0.62682907  0.92153181  0.87801489    -0.19900
F489        F  0.57274056  0.90084187  0.94775725    -0.19600
F490        F  0.84343410  0.09130349  0.04216372    -0.19600
F491        F  0.81117622  0.02012908  0.09372746    -0.19900
F492        F  0.78347091  0.07815336  0.10277979    -0.22600
C493        C  0.03285080  0.27603719  0.49415316    -0.05400
C494        C  0.98964839  0.23741684  0.52249058     0.00500
C495        C  0.95068918  0.24902579  0.54077453    -0.08100
C496        C  0.95664365  0.29856810  0.52956238    -0.05500
C497        C  0.99955467  0.33640949  0.50084093     0.00500
C498        C  0.03853956  0.32526073  0.48297520    -0.08000
C499        C  0.08612242  0.36517504  0.45241613     0.62400
H500        H  0.06209094  0.26704979  0.47941415     0.13100
H501        H  0.92789899  0.30862894  0.54357717     0.13100
C502        C  0.90341008  0.21028445  0.57245128     0.62600
F503        F  0.06997401  0.37422303  0.40386628    -0.22600
F504        F  0.12167726  0.34805804  0.44310493    -0.19900
F505        F  0.11219862  0.41173571  0.48077651    -0.19600
F506        F  0.91983940  0.19152443  0.61440526    -0.19600
F507        F  0.86905616  0.16906123  0.53997762    -0.19900
F508        F  0.87595331  0.23312004  0.59332395    -0.22600
C509        C  0.96863875  0.67765937  0.46721737    -0.05400
C510        C  0.01323906  0.67800210  0.48879443     0.00500
C511        C  0.05780705  0.72640701  0.50356278    -0.08100
C512        C  0.05435299  0.77242425  0.50054478    -0.05500
C513        C  0.00874787  0.77197022  0.48114748     0.00500
C514        C  0.96610239  0.72400910  0.46170133    -0.08000
C515        C  0.91940145  0.72184213  0.43259341     0.62400
H516        H  0.93584750  0.64049912  0.45397977     0.13100
H517        H  0.08733838  0.80925158  0.51417447     0.13100
C518        C  0.10919867  0.72955559  0.52095342     0.62600
F519        F  0.88943313  0.67442810  0.40629883    -0.22600
F520        F  0.93706383  0.76101032  0.39510079    -0.19900
F521        F  0.88727711  0.72818142  0.46808896    -0.19600
F522        F  0.12516782  0.70687101  0.48258062    -0.19600
F523        F  0.10243619  0.70352706  0.56824316    -0.19900
F524        F  0.14918272  0.78084274  0.52833667    -0.22600
C525        C  0.06642286  0.53818959  0.77340071    -0.05400
C526        C  0.02077232  0.49969008  0.79809814     0.00500
C527        C  0.97478102  0.46796888  0.76731585    -0.08100
C528        C  0.97623732  0.47588024  0.71220103    -0.05500
C529        C  0.02179214  0.51463106  0.68757613     0.00500
C530        C  0.06771408  0.54630224  0.71832451    -0.08000
C531        C  0.11748700  0.58864442  0.69288280     0.62400
H532        H  0.10064813  0.56277900  0.79802402     0.13100
H533        H  0.94199530  0.45139091  0.68755378     0.13100
C534        C  0.92451755  0.42619852  0.79271032     0.62600
F535        F  0.15831924  0.61369287  0.72948519    -0.19800
F536        F  0.10759259  0.62572795  0.67055718    -0.19900
F537        F  0.13381144  0.56705212  0.65373454    -0.19600
F538        F  0.90871475  0.44822928  0.83188161    -0.19600
F539        F  0.93330545  0.38836762  0.81495520    -0.19900
F540        F  0.88359517  0.40192445  0.75606473    -0.22600
C541        C  0.96374530  0.49055108  0.21023359    -0.05400
C542        C  0.01356034  0.50787043  0.18827120     0.00500
C543        C  0.05772453  0.52198148  0.22190398    -0.08100
C544        C  0.05012859  0.51684424  0.27698286    -0.05500
C545        C  0.00031552  0.49926524  0.29900912     0.00500
C546        C  0.95630662  0.48634584  0.26545499    -0.08000
C547        C  0.90209282  0.46876292  0.28782005     0.62400
H548        H  0.93069986  0.48017427  0.18349278     0.13100
H549        H  0.08329667  0.52752491  0.30365865     0.13100
C550        C  0.11256651  0.54295299  0.19968366     0.62600
F551        F  0.86496259  0.45803092  0.24804788    -0.22600
F552        F  0.90396064  0.50768031  0.32017299    -0.19900
F553        F  0.88553463  0.42381127  0.31709536    -0.19600
F554        F  0.12616982  0.58740927  0.17042242    -0.19600
F555        F  0.11364933  0.50548935  0.16734672    -0.19900
F556        F  0.15018468  0.55614526  0.23952011    -0.22600
C557        C  0.04207238  0.27366550  0.02847344    -0.05400
C558        C  0.99723053  0.23150820  0.00466589     0.00500
C559        C  0.96177596  0.24172363  0.97507674    -0.08100
C560        C  0.96971477  0.29293814  0.97510420    -0.05500
C561        C  0.01394744  0.33468631  0.99974929     0.00500
C562        C  0.05189366  0.32549108  0.02519620    -0.08000
C563        C  0.10377425  0.37047709  0.04596136     0.62400
H564        H  0.07024236  0.26576569  0.04854090     0.13100
H565        H  0.94203820  0.30126425  0.95461220     0.13100
C566        C  0.91826555  0.20011510  0.94021497     0.62600
F567        F  0.13708660  0.35327509  0.06476761    -0.22600
F568        F  0.09509236  0.39638143  0.08697868    -0.19900
F569        F  0.12908354  0.40529311  0.00537009    -0.19600
F570        F  0.88069722  0.16130831  0.97115114    -0.19600
F571        F  0.93926624  0.17853955  0.90611851    -0.19900
F572        F  0.89327415  0.22049354  0.90967527    -0.22600
C573        C  0.05546932  0.71109085  0.97101460    -0.05400
C574        C  0.00926675  0.66580841  0.98513514     0.00500
C575        C  0.96271000  0.66779758  0.99360445    -0.08100
C576        C  0.96444719  0.71624044  0.98886903    -0.05500
C577        C  0.01135266  0.76286999  0.97668176     0.00500
C578        C  0.05794520  0.75989866  0.96685481    -0.08000
C579        C  0.11078647  0.80726426  0.95326933     0.62400
H580        H  0.09013495  0.70769497  0.96414957     0.13100
H581        H  0.92895754  0.71796250  0.99599977     0.13100
C582        C  0.91166619  0.61885809  0.00793293     0.62600
F583        F  0.14893109  0.79377306  0.94289323    -0.22600
F584        F  0.12891014  0.84221029  0.99555211    -0.19900
F585        F  0.10550967  0.83124250  0.90840119    -0.19600
F586        F  0.91805869  0.59943126  0.05554274    -0.19600
F587        F  0.89781743  0.58105817  0.96874957    -0.19900
F588        F  0.87046283  0.62879371  0.01332161    -0.22600
loop_ 
_geom_bond_atom_site_label_1 
_geom_bond_atom_site_label_2 
_geom_bond_distance 
_geom_bond_site_symmetry_2 
_ccdc_geom_bond_type 
N1            C6   1.353       .  A
N1            C5   1.354       .  A
N1           H33   1.040       .  S
N2            C9   1.351       .  A
N2           C10   1.352       .  A
N3            C8   1.353       .  A
N3            C7   1.352       .  A
N3           H34   1.038       .  S
N4           C11   1.351       .  A
N4           C12   1.351       .  A
C5           C13   1.387   1_455  A
C5           C21   1.416   1_554  A
C6           C22   1.414       .  A
C6           C14   1.387   1_455  A
C7           C15   1.388   1_455  A
C7           C24   1.415       .  A
C8           C23   1.414       .  A
C8           C16   1.387   1_455  A
C9           C21   1.415       .  A
C9           C17   1.386       .  A
C10          C24   1.414       .  A
C10          C18   1.386       .  A
C11          C19   1.386       .  A
C11          C22   1.412       .  A
C12          C20   1.386       .  A
C12          C23   1.413   1_554  A
C13          C14   1.374       .  A
C13          H25   1.082       .  S
C14          H26   1.082       .  S
C15          C16   1.372       .  A
C15          H27   1.082       .  S
C16          H28   1.082       .  S
C17          C18   1.377       .  A
C17          H29   1.082       .  S
C18          H30   1.082       .  S
C19          C20   1.375       .  A
C19          H31   1.082       .  S
C20          H32   1.082       .  S
C21         C561   1.493       .  S
C22         C542   1.487       .  S
C23         C574   1.488       .  S
C24         C526   1.488       .  S
N35          C40   1.354   1_455  A
N35          C39   1.350   1_455  A
N35          H67   1.046       .  S
N36          C43   1.353       .  A
N36          C44   1.354       .  A
N37          C42   1.354       .  A
N37          C41   1.354       .  A
N37          H68   1.046       .  S
N38          C45   1.350       .  A
N38          C46   1.349       .  A
C39          C47   1.388       .  A
C39          C55   1.417       .  A
C40          C56   1.417   1_655  A
C40          C48   1.387       .  A
C41          C49   1.387   1_455  A
C41          C58   1.418       .  A
C42          C57   1.418       .  A
C42          C50   1.387   1_455  A
C43          C55   1.416   1_455  A
C43          C51   1.387       .  A
C44          C58   1.415       .  A
C44          C52   1.385       .  A
C45          C53   1.386       .  A
C45          C56   1.411       .  A
C46          C54   1.387       .  A
C46          C57   1.410       .  A
C47          C48   1.379       .  A
C47          H59   1.082       .  S
C48          H60   1.083       .  S
C49          C50   1.381       .  A
C49          H61   1.082       .  S
C50          H62   1.083       .  S
C51          C52   1.371       .  A
C51          H63   1.082       .  S
C52          H64   1.082       .  S
C53          C54   1.370       .  A
C53          H65   1.082       .  S
C54          H66   1.082       .  S
C55         C545   1.487   1_655  S
C56         C497   1.492   1_455  S
C57         C529   1.488       .  S
C58         C510   1.499       .  S
O69         Mg71   2.156   1_455  S
O69         Mg77   2.163   1_554  S
O69         C104   1.236       .  S
C70         H109   1.081       .  S
C70          O83   1.233       .  S
C70         O107   1.267       .  A
Mg71        O100   2.163   1_554  S
Mg71        O115   2.323   1_554  S
Mg71        O111   2.273       .  S
Mg71         O82   2.314       .  S
O72        Mg114   2.155   1_554  S
O72         Mg97   2.128       .  S
O72          C93   1.234       .  S
O73         C104   1.270   1_545  A
O73         Mg97   2.299       .  S
C74         C478   1.482       .  S
C74          O76   1.272       .  A
C74          O88   1.270   1_565  A
O75         C103   1.270       .  A
O75         Mg77   2.303   1_655  S
O76        Mg108   2.273       .  S
Mg77         O83   2.139   1_565  S
Mg77         O91   2.249       .  S
Mg77         O79   2.302   1_556  S
C78         C558   1.486       .  S
C78         O116   1.273       .  A
C78          O84   1.271   1_654  A
O79          C86   1.275   1_565  A
H80          C93   1.081       .  S
C81         H106   1.081       .  S
C81          O95   1.235       .  S
C81          O96   1.271   1_545  A
O82         C105   1.271       .  A
O83         Mg97   2.157   1_556  S
O84        Mg114   2.283       .  S
C85         C433   1.500       .  S
C85          O98   1.268       .  A
C85          O90   1.276       .  A
C86         C462   1.488       .  S
C86         O113   1.267       .  A
Mg87         O94   2.184   1_545  S
Mg87         O95   2.153   1_554  S
Mg87         O88   2.284   1_554  S
Mg87         O89   2.292   1_655  S
Mg87        O116   2.296       .  S
O89          C93   1.268       .  A
O90         Mg97   2.308   1_556  S
O91         C110   1.267       .  A
O92         C112   1.277       .  A
O92        Mg108   2.321   1_554  S
O94        Mg108   2.154   1_554  S
O94         C105   1.234       .  S
O95        Mg114   2.149   1_655  S
O96        Mg108   2.312       .  S
Mg97        O113   2.238       .  S
O98        Mg114   2.253       .  S
H99         C104   1.081       .  S
O100       Mg108   2.163       .  S
O100        C103   1.235       .  S
H101        C103   1.081       .  S
H102        C105   1.081       .  S
O107       Mg114   2.290       .  S
C110        C577   1.504       .  S
C110        O115   1.278   1_455  A
O111        C112   1.271       .  A
C112        C446   1.499       .  S
O117       Mg119   2.152   1_455  S
O117       Mg125   2.155       .  S
O117        C152   1.236       .  S
C118        H157   1.081       .  S
C118        O131   1.235       .  S
C118        O155   1.270       .  A
Mg119       O148   2.160       .  S
Mg119       O163   2.333       .  S
Mg119       O159   2.267       .  S
Mg119       O130   2.315       .  S
O120       Mg162   2.153       .  S
O120       Mg145   2.148       .  S
O120        C141   1.235       .  S
O121        C152   1.272   1_545  A
O121       Mg145   2.316       .  S
C122        C417   1.486       .  S
C122        O124   1.269       .  A
C122        O136   1.273   1_565  A
O123        C151   1.270       .  A
O123       Mg125   2.303   1_655  S
O124       Mg156   2.257       .  S
Mg125       O131   2.160   1_565  S
Mg125       O139   2.271       .  S
Mg125       O127   2.287       .  S
C126        C494   1.497       .  S
C126        O164   1.271       .  A
C126        O132   1.274   1_655  A
O127        C134   1.272   1_565  A
H128        C141   1.081       .  S
C129        H154   1.081       .  S
C129        O143   1.234       .  S
C129        O144   1.268       .  A
O130        C153   1.271       .  A
O131       Mg145   2.150       .  S
O132       Mg162   2.292       .  S
C133        C369   1.493       .  S
C133        O146   1.271       .  A
C133        O138   1.276       .  A
C134        C398   1.491       .  S
C134        O161   1.269       .  A
Mg135       O142   2.167   1_545  S
Mg135       O143   2.146       .  S
Mg135       O136   2.300       .  S
Mg135       O137   2.305       .  S
Mg135       O164   2.282       .  S
O137        C141   1.270   1_655  A
O138       Mg145   2.331       .  S
O139        C158   1.271       .  A
O140        C160   1.273       .  A
O140       Mg156   2.286       .  S
O142       Mg156   2.160       .  S
O142        C153   1.234       .  S
O143       Mg162   2.145   1_655  S
O144       Mg156   2.295   1_545  S
Mg145       O161   2.264       .  S
O146       Mg162   2.262       .  S
H147        C152   1.081       .  S
O148       Mg156   2.163       .  S
O148        C151   1.234       .  S
H149        C151   1.081       .  S
H150        C153   1.081       .  S
O155       Mg162   2.299       .  S
C158        C513   1.497       .  S
C158        O163   1.276   1_455  A
O159        C160   1.271       .  A
C160        C385   1.485       .  S
N165        C170   1.354       .  A
N165        C169   1.353       .  A
N165        H197   1.040   1_565  S
N166        C173   1.348   1_565  A
N166        C174   1.349   1_565  A
N167        C172   1.352       .  A
N167        C171   1.351       .  A
N167        H198   1.038   1_565  S
N168        C175   1.349   1_565  A
N168        C176   1.349   1_565  A
C169        C177   1.386       .  A
C169        C185   1.415       .  A
C170        C186   1.419       .  A
C170        C178   1.388       .  A
C171        C179   1.387       .  A
C171        C188   1.413   1_556  A
C172        C187   1.414       .  A
C172        C180   1.387       .  A
C173        C185   1.409   1_545  A
C173        C181   1.388       .  A
C174        C188   1.407   1_545  A
C174        C182   1.386       .  A
C175        C183   1.387       .  A
C175        C186   1.412   1_546  A
C176        C184   1.386       .  A
C176        C187   1.409   1_545  A
C177        C178   1.380       .  A
C177        H189   1.082       .  S
C178        H190   1.082       .  S
C179        C180   1.377       .  A
C179        H191   1.082       .  S
C180        H192   1.082       .  S
C181        C182   1.367       .  A
C181        H193   1.082       .  S
C182        H194   1.082       .  S
C183        C184   1.373       .  A
C183        H195   1.082       .  S
C184        H196   1.082       .  S
C185        C350   1.484       .  S
C186        C481   1.494   1_554  S
C187        C334   1.483       .  S
C188        C465   1.482       .  S
N199        C204   1.350       .  A
N199        C203   1.352       .  A
N199        H231   1.039   1_565  S
N200        C207   1.351       .  A
N200        C208   1.350   1_565  A
N201        C206   1.352       .  A
N201        C205   1.350       .  A
N201        H232   1.040   1_565  S
N202        C209   1.350   1_565  A
N202        C210   1.350   1_565  A
C203        C211   1.388       .  A
C203        C219   1.412       .  A
C204        C220   1.411       .  A
C204        C212   1.387       .  A
C205        C213   1.388       .  A
C205        C222   1.413       .  A
C206        C221   1.411       .  A
C206        C214   1.387       .  A
C207        C219   1.414       .  A
C207        C215   1.386   1_565  A
C208        C222   1.414   1_545  A
C208        C216   1.386       .  A
C209        C217   1.386       .  A
C209        C220   1.413   1_545  A
C210        C218   1.386       .  A
C210        C221   1.413   1_545  A
C211        C212   1.372       .  A
C211        H223   1.082       .  S
C212        H224   1.082       .  S
C213        C214   1.373       .  A
C213        H225   1.082       .  S
C214        H226   1.082       .  S
C215        C216   1.379       .  A
C215        H227   1.082       .  S
C216        H228   1.082       .  S
C217        C218   1.375       .  A
C217        H229   1.082       .  S
C218        H230   1.082       .  S
C219        C353   1.486       .  S
C220        C414   1.485       .  S
C221        C337   1.486       .  S
C222        C401   1.487   1_565  S
N233        C238   1.352       .  A
N233        C237   1.353       .  A
N233        H265   1.039       .  S
N234        C241   1.350       .  A
N234        C242   1.351       .  A
N235        C240   1.354       .  A
N235        C239   1.355       .  A
N235        H266   1.038       .  S
N236        C243   1.351       .  A
N236        C244   1.351       .  A
C237        C245   1.386       .  A
C237        C253   1.414       .  A
C238        C254   1.415   1_554  A
C238        C246   1.387       .  A
C239        C247   1.386       .  A
C239        C256   1.418   1_556  A
C240        C255   1.419       .  A
C240        C248   1.388       .  A
C241        C253   1.411       .  A
C241        C249   1.387       .  A
C242        C256   1.411       .  A
C242        C250   1.386       .  A
C243        C251   1.386       .  A
C243        C254   1.412       .  A
C244        C252   1.387       .  A
C244        C255   1.413       .  A
C245        C246   1.379       .  A
C245        H257   1.082       .  S
C246        H258   1.082       .  S
C247        C248   1.380       .  A
C247        H259   1.082       .  S
C248        H260   1.082       .  S
C249        C250   1.370       .  A
C249        H261   1.082       .  S
C250        H262   1.082       .  S
C251        C252   1.370       .  A
C251        H263   1.082       .  S
C252        H264   1.082       .  S
C253        C318   1.488       .  S
C254        C430   1.488       .  S
C255        C302   1.488       .  S
C256        C449   1.491       .  S
N267        C272   1.353       .  A
N267        C271   1.354       .  A
N267        H299   1.039       .  S
N268        C275   1.352       .  A
N268        C276   1.350       .  A
N269        C274   1.354       .  A
N269        C273   1.352       .  A
N269        H300   1.041       .  S
N270        C277   1.350       .  A
N270        C278   1.350       .  A
C271        C279   1.387       .  A
C271        C287   1.417       .  A
C272        C288   1.416       .  A
C272        C280   1.387       .  A
C273        C281   1.387       .  A
C273        C290   1.414       .  A
C274        C289   1.416       .  A
C274        C282   1.386       .  A
C275        C287   1.412       .  A
C275        C283   1.385       .  A
C276        C290   1.412       .  A
C276        C284   1.387       .  A
C277        C285   1.386       .  A
C277        C288   1.410       .  A
C278        C286   1.387       .  A
C278        C289   1.413       .  A
C279        C280   1.379       .  A
C279        H291   1.082       .  S
C280        H292   1.082       .  S
C281        C282   1.381       .  A
C281        H293   1.082       .  S
C282        H294   1.082       .  S
C283        C284   1.372       .  A
C283        H295   1.082       .  S
C284        H296   1.082       .  S
C285        C286   1.370       .  A
C285        H297   1.082       .  S
C286        H298   1.082       .  S
C287        C366   1.494       .  S
C288        C305   1.487       .  S
C289        C382   1.495       .  S
C290        C321   1.487       .  S
C301        C302   1.403       .  A
C301        C306   1.406       .  A
C301        H308   1.083       .  S
C302        C303   1.416       .  A
C303        C304   1.407       .  A
C303        C310   1.518       .  S
C304        C305   1.403       .  A
C304        H309   1.083       .  S
C305        C306   1.414       .  A
C306        C307   1.518       .  S
C307        F311   1.384       .  S
C307        F312   1.383       .  S
C307        F313   1.382       .  S
C310        F314   1.382       .  S
C310        F315   1.382       .  S
C310        F316   1.384       .  S
C317        C318   1.404       .  A
C317        C322   1.406       .  A
C317        H324   1.083       .  S
C318        C319   1.416       .  A
C319        C320   1.406       .  A
C319        C326   1.518       .  S
C320        C321   1.403       .  A
C320        H325   1.083       .  S
C321        C322   1.415       .  A
C322        C323   1.518       .  S
C323        F327   1.385       .  S
C323        F328   1.382       .  S
C323        F329   1.383       .  S
C326        F330   1.384       .  S
C326        F331   1.383       .  S
C326        F332   1.382       .  S
C333        C334   1.400   1_545  A
C333        C338   1.404       .  A
C333        H340   1.083       .  S
C334        C335   1.416       .  A
C335        C336   1.406       .  A
C335        C342   1.518       .  S
C336        C337   1.402       .  A
C336        H341   1.083       .  S
C337        C338   1.416   1_565  A
C338        C339   1.518       .  S
C339        F343   1.385       .  S
C339        F344   1.382       .  S
C339        F345   1.382       .  S
C342        F346   1.383       .  S
C342        F347   1.382       .  S
C342        F348   1.385       .  S
C349        C350   1.403       .  A
C349        C354   1.407       .  A
C349        H356   1.083       .  S
C350        C351   1.414   1_565  A
C351        C352   1.404       .  A
C351        C358   1.518       .  S
C352        C353   1.402   1_545  A
C352        H357   1.083       .  S
C353        C354   1.416       .  A
C354        C355   1.518       .  S
C355        F359   1.382       .  S
C355        F360   1.382       .  S
C355        F361   1.385       .  S
C358        F362   1.382       .  S
C358        F363   1.382       .  S
C358        F364   1.384       .  S
C365        C366   1.404       .  A
C365        C370   1.412       .  A
C365        H372   1.083       .  S
C366        C367   1.413       .  A
C367        C368   1.408       .  A
C367        C374   1.519       .  S
C368        C369   1.409       .  A
C368        H373   1.083       .  S
C369        C370   1.421       .  A
C370        C371   1.518       .  S
C371        F375   1.385       .  S
C371        F376   1.384       .  S
C371        F377   1.379       .  S
C374        F378   1.383       .  S
C374        F379   1.382       .  S
C374        F380   1.385       .  S
C381        C382   1.408       .  A
C381        C386   1.407       .  A
C381        H388   1.083       .  S
C382        C383   1.418       .  A
C383        C384   1.406       .  A
C383        C390   1.522       .  S
C384        C385   1.408       .  A
C384        H389   1.083       .  S
C385        C386   1.415       .  A
C386        C387   1.518       .  S
C387        F391   1.385       .  S
C387        F392   1.385       .  S
C387        F393   1.382       .  S
C390        F394   1.383       .  S
C390        F395   1.380       .  S
C390        F396   1.385       .  S
C397        C398   1.411   1_565  A
C397        C402   1.404       .  A
C397        H404   1.082       .  S
C398        C399   1.422       .  A
C399        C400   1.408       .  A
C399        C406   1.520       .  S
C400        C401   1.404       .  A
C400        H405   1.083       .  S
C401        C402   1.413   1_545  A
C402        C403   1.522       .  S
C403        F407   1.383       .  S
C403        F408   1.380       .  S
C403        F409   1.384       .  S
C406        F410   1.384       .  S
C406        F411   1.380       .  S
C406        F412   1.385       .  S
C413        C414   1.396       .  A
C413        C418   1.404       .  A
C413        H420   1.083       .  S
C414        C415   1.414   1_565  A
C415        C416   1.408       .  A
C415        C422   1.519       .  S
C416        C417   1.407   1_545  A
C416        H421   1.083       .  S
C417        C418   1.425       .  A
C418        C419   1.521       .  S
C419        F423   1.385       .  S
C419        F424   1.384       .  S
C419        F425   1.381       .  S
C422        F426   1.382       .  S
C422        F427   1.384       .  S
C422        F428   1.384       .  S
C429        C430   1.400       .  A
C429        C434   1.408       .  A
C429        H436   1.083       .  S
C430        C431   1.410       .  A
C431        C432   1.405       .  A
C431        C438   1.520   1_556  S
C432        C433   1.412       .  A
C432        H437   1.080   1_556  S
C433        C434   1.428       .  A
C434        C435   1.521       .  S
C435        F439   1.385       .  S
C435        F440   1.383       .  S
C435        F441   1.384       .  S
C438        F442   1.381       .  S
C438        F443   1.383   1_554  S
C438        F444   1.382       .  S
C445        C446   1.409       .  A
C445        C450   1.408       .  A
C445        H452   1.084       .  S
C446        C447   1.427       .  A
C447        C448   1.409   1_554  A
C447        C454   1.520   1_554  S
C448        C449   1.399   1_556  A
C448        H453   1.083       .  S
C449        C450   1.418       .  A
C450        C451   1.520       .  S
C451        F455   1.384       .  S
C451        F456   1.381       .  S
C451        F457   1.383       .  S
C454        F458   1.383   1_556  S
C454        F459   1.383       .  S
C454        F460   1.385       .  S
C461        C462   1.407   1_565  A
C461        C466   1.405       .  A
C461        H468   1.082       .  S
C462        C463   1.427       .  A
C463        C464   1.404       .  A
C463        C470   1.520   1_554  S
C464        C465   1.396   1_545  A
C464        H469   1.083   1_554  S
C465        C466   1.412       .  A
C466        C467   1.518       .  S
C467        F471   1.382       .  S
C467        F472   1.383       .  S
C467        F473   1.384       .  S
C470        F474   1.383   1_556  S
C470        F475   1.383       .  S
C470        F476   1.385       .  S
C477        C478   1.400       .  A
C477        C482   1.404       .  A
C477        H484   1.085       .  S
C478        C479   1.424   1_566  A
C479        C480   1.407       .  A
C479        C486   1.523       .  S
C480        C481   1.402   1_544  A
C480        H485   1.083       .  S
C481        C482   1.422       .  A
C482        C483   1.518       .  S
C483        F487   1.384       .  S
C483        F488   1.383       .  S
C483        F489   1.381       .  S
C486        F490   1.375       .  S
C486        F491   1.383       .  S
C486        F492   1.385       .  S
C493        C494   1.412   1_455  A
C493        C498   1.405       .  A
C493        H500   1.082       .  S
C494        C495   1.423       .  A
C495        C496   1.411       .  A
C495        C502   1.520       .  S
C496        C497   1.404       .  A
C496        H501   1.083       .  S
C497        C498   1.412   1_655  A
C498        C499   1.520       .  S
C499        F503   1.381       .  S
C499        F504   1.385       .  S
C499        F505   1.382       .  S
C502        F506   1.383       .  S
C502        F507   1.383       .  S
C502        F508   1.385       .  S
C509        C510   1.404   1_655  A
C509        C514   1.411       .  A
C509        H516   1.083       .  S
C510        C511   1.416       .  A
C511        C512   1.411       .  A
C511        C518   1.520       .  S
C512        C513   1.410       .  A
C512        H517   1.083       .  S
C513        C514   1.420   1_455  A
C514        C515   1.517       .  S
C515        F519   1.385       .  S
C515        F520   1.384       .  S
C515        F521   1.381       .  S
C518        F522   1.384       .  S
C518        F523   1.381       .  S
C518        F524   1.384       .  S
C525        C526   1.404       .  A
C525        C530   1.407       .  A
C525        H532   1.083       .  S
C526        C527   1.416   1_455  A
C527        C528   1.407       .  A
C527        C534   1.519       .  S
C528        C529   1.404   1_655  A
C528        H533   1.083       .  S
C529        C530   1.414       .  A
C530        C531   1.517       .  S
C531        F535   1.384       .  S
C531        F536   1.382       .  S
C531        F537   1.383       .  S
C534        F538   1.383       .  S
C534        F539   1.382       .  S
C534        F540   1.384       .  S
C541        C542   1.403   1_655  A
C541        C546   1.407       .  A
C541        H548   1.083       .  S
C542        C543   1.414       .  A
C543        C544   1.405       .  A
C543        C550   1.517       .  S
C544        C545   1.402       .  A
C544        H549   1.083       .  S
C545        C546   1.416   1_455  A
C546        C547   1.518       .  S
C547        F551   1.385       .  S
C547        F552   1.382       .  S
C547        F553   1.381       .  S
C550        F554   1.383       .  S
C550        F555   1.382       .  S
C550        F556   1.385       .  S
C557        C558   1.406   1_455  A
C557        C562   1.409       .  A
C557        H564   1.083       .  S
C558        C559   1.421   1_554  A
C559        C560   1.407       .  A
C559        C566   1.519       .  S
C560        C561   1.401   1_655  A
C560        H565   1.083       .  S
C561        C562   1.416   1_556  A
C562        C563   1.519       .  S
C563        F567   1.384       .  S
C563        F568   1.381       .  S
C563        F569   1.383       .  S
C566        F570   1.376       .  S
C566        F571   1.384       .  S
C566        F572   1.385       .  S
C573        C574   1.396       .  A
C573        C578   1.407       .  A
C573        H580   1.083       .  S
C574        C575   1.411   1_455  A
C575        C576   1.408       .  A
C575        C582   1.519   1_556  S
C576        C577   1.413   1_655  A
C576        H581   1.081       .  S
C577        C578   1.433       .  A
C578        C579   1.523       .  S
C579        F583   1.385       .  S
C579        F584   1.382       .  S
C579        F585   1.383       .  S
C582        F586   1.382       .  S
C582        F587   1.383   1_554  S
C582        F588   1.383       .  S
