geometry optimzed in LAMMPS
_audit_creation_date              2020-12-01 
_audit_creation_method            'lammps2cif' 
_symmetry_space_group_name_H-M    'P1' 
_symmetry_Int_Tables_number       1 
_symmetry_cell_setting            triclinic 
loop_ 
_symmetry_equiv_pos_as_xyz 
  x,y,z 
_cell_length_a                    38.77027242 
_cell_length_b                    38.839529650248465 
_cell_length_c                    43.525434645458795 
_cell_angle_alpha                 89.70614994497014 
_cell_angle_beta                  90.20978576801237 
_cell_angle_gamma                 120.02539164739632 
loop_ 
_atom_site_label 
_atom_site_type_symbol 
_atom_site_fract_x 
_atom_site_fract_y 
_atom_site_fract_z 
_atom_site_charge 
O1          O  0.46686117  0.23342349  0.04776484    -0.74100
O2          O  0.46901373  0.23758427  0.46006380    -0.74100
O3          O  0.46446107  0.18459928  0.00260185    -0.74200
O4          O  0.47105362  0.28606494  0.50518486    -0.74200
O5          O  0.03789647  0.31651014  0.00218151    -0.74200
O6          O  0.03170861  0.21499749  0.50342202    -0.74100
O7          O  0.03552157  0.26586662  0.45898578    -0.74100
O8          O  0.03391511  0.26561360  0.04667317    -0.74200
Ni9        Ni  0.46520684  0.23419700  0.00389351     1.25400
Ni10       Ni  0.03723861  0.26685546  0.50285512     1.25400
C11         C  0.00049787  0.24935146  0.06084815     0.88100
C12         C  0.00277765  0.25227401  0.44407794     0.88000
C13         C  0.49664911  0.18309146  0.00385958     0.88000
C14         C  0.50462113  0.31754288  0.00457860     0.88200
O15         O  0.46999285  0.18488189  0.25552835    -0.74100
O16         O  0.46617171  0.28147454  0.25185178    -0.74100
O17         O  0.46903658  0.23206663  0.21009044    -0.74200
O18         O  0.46755409  0.23450692  0.29770160    -0.74200
O19         O  0.03388277  0.26755242  0.29658986    -0.74200
O20         O  0.03532362  0.26906251  0.20891845    -0.74100
O21         O  0.03242928  0.31657316  0.25286910    -0.74100
O22         O  0.03667232  0.22007701  0.25228017    -0.74200
Ni23       Ni  0.46581966  0.23198930  0.25385845     1.25400
Ni24       Ni  0.03696383  0.26959817  0.25277537     1.25400
C25         C  0.00407422  0.18665216  0.25257292     0.88100
C26         C  0.99855812  0.31468853  0.25077120     0.88000
C27         C  0.00254425  0.25041666  0.19402656     0.88000
C28         C  0.00050609  0.25084335  0.31082605     0.88200
C29         C  0.46222310  0.46130763  0.99998216     0.02600
C30         C  0.99979799  0.46306574  0.99754449     0.02600
C31         C  0.03509330  0.00006959  0.99707688     0.02600
C32         C  0.03363097  0.03553802  0.99456672     0.02600
C33         C  0.99643502  0.03416948  0.99329551     0.02600
C34         C  0.46063880  0.99684632  0.99765843     0.02600
C35         C  0.03794019  0.03666034  0.23722172     0.02600
C36         C  0.03703995  0.99980090  0.23505486     0.02600
C37         C  0.99965660  0.46344511  0.23496712     0.02600
C38         C  0.46351129  0.46455626  0.23732353     0.02600
C39         C  0.46474321  0.00182061  0.23929732     0.02600
C40         C  0.00205742  0.03756428  0.23957761     0.02600
O41         O  0.23103633  0.46721661  0.04651450    -0.74100
O42         O  0.23054511  0.46460052  0.45853942    -0.74100
O43         O  0.27868726  0.46408391  0.00268834    -0.74200
O44         O  0.18211583  0.46669475  0.50231319    -0.74200
O45         O  0.21660786  0.03328185  0.99985020    -0.74200
O46         O  0.31361953  0.03030380  0.50336643    -0.74100
O47         O  0.26618623  0.03113542  0.45788423    -0.74100
O48         O  0.26441508  0.03322892  0.04544047    -0.74200
Ni49       Ni  0.22929841  0.46355926  0.00254700     1.25400
Ni50       Ni  0.26648434  0.03443574  0.50163178     1.25400
C51         C  0.24792659  0.00058974  0.06063088     0.88100
C52         C  0.24851850  0.99782997  0.44375428     0.88000
C53         C  0.31207298  0.99663309  0.00344801     0.88000
C54         C  0.18346032  0.00044917  0.00063046     0.88200
O55         O  0.23441272  0.46766059  0.29634805    -0.74100
O56         O  0.23563487  0.46714624  0.20848603    -0.74100
O57         O  0.28574031  0.47010002  0.25340440    -0.74200
O58         O  0.18448119  0.46453866  0.25114878    -0.74200
O59         O  0.21534529  0.03139612  0.25254972    -0.74200
O60         O  0.31649766  0.03670152  0.25125961    -0.74100
O61         O  0.26467520  0.03354094  0.20811110    -0.74100
O62         O  0.26660913  0.03434888  0.29596260    -0.74200
Ni63       Ni  0.23402191  0.46498966  0.25243059     1.25400
Ni64       Ni  0.26693639  0.03637835  0.25202166     1.25400
C65         C  0.25050370  0.00142350  0.31080415     0.88100
C66         C  0.24943793  0.00029972  0.19386623     0.88000
C67         C  0.31758849  0.50408679  0.25209960     0.88000
C68         C  0.18325905  0.49684672  0.25113418     0.88200
O69         O  0.18073992  0.21883373  0.00161844    -0.74100
O70         O  0.28201268  0.31460684  0.50489296    -0.74100
O71         O  0.23353608  0.26838304  0.45924844    -0.74200
O72         O  0.22971340  0.26476116  0.04723712    -0.74200
O73         O  0.26233434  0.23113357  0.04719805    -0.74200
O74         O  0.26257553  0.23135786  0.45949437    -0.74100
O75         O  0.31257160  0.27922303  0.00303449    -0.74100
O76         O  0.21197743  0.18330964  0.50329448    -0.74200
Ni77       Ni  0.23013857  0.26789915  0.00330199     1.25400
Ni78       Ni  0.26319077  0.22993758  0.00335689     1.25400
C79         C  0.17972995  0.18543439  0.00213576     0.88100
C80         C  0.31357788  0.31265434  0.00394549     0.88000
C81         C  0.24841147  0.25018978  0.44480807     0.88000
C82         C  0.24590907  0.24771506  0.06176688     0.88200
O83         O  0.18593201  0.21340870  0.25352265    -0.74100
O84         O  0.28164819  0.31455084  0.25241642    -0.74100
O85         O  0.23342676  0.26355529  0.20930340    -0.74200
O86         O  0.23413580  0.26434292  0.29697524    -0.74200
O87         O  0.26842425  0.23239013  0.29731755    -0.74200
O88         O  0.27067305  0.23472625  0.20946004    -0.74100
O89         O  0.31761607  0.28420611  0.25435816    -0.74100
O90         O  0.22178529  0.18291170  0.25208521    -0.74200
Ni91       Ni  0.23251452  0.26504638  0.25312233     1.25400
Ni92       Ni  0.27094758  0.23248390  0.25339489     1.25400
C93         C  0.18818583  0.18168405  0.25219068     0.88100
C94         C  0.31533959  0.31596150  0.25304570     0.88000
C95         C  0.25209275  0.24922630  0.19482413     0.88000
C96         C  0.25102444  0.24814126  0.31169500     0.88200
C97         C  0.25850266  0.22424142  0.39552098    -0.11900
C98         C  0.24925129  0.25044966  0.41073474     0.05100
C99         C  0.24081472  0.27592793  0.39299673    -0.07200
C100        C  0.24134051  0.27441487  0.36092409    -0.10400
C101        C  0.25052143  0.24816162  0.34573758    -0.02500
C102        C  0.25918458  0.22284806  0.36345397     0.04300
N103        N  0.26765630  0.19472758  0.34937994     0.66800
H104        H  0.26481591  0.20416609  0.40853487     0.15700
H105        H  0.23506239  0.29448294  0.34786184     0.15400
N106        N  0.23260507  0.30424209  0.40704127     0.74500
O107        O  0.30324212  0.20235399  0.34716791    -0.38900
O108        O  0.23955716  0.16024577  0.34330265    -0.38900
O109        O  0.26092412  0.33837858  0.41371584    -0.39600
O110        O  0.19712189  0.29694764  0.40920086    -0.39700
C111        C  0.22330791  0.25589618  0.14555118    -0.11900
C112        C  0.25135061  0.24901537  0.16076611     0.05100
C113        C  0.27713296  0.24116217  0.14307671    -0.07200
C114        C  0.27415672  0.24008230  0.11101359    -0.08000
C115        C  0.24655589  0.24763806  0.09580868    -0.02500
C116        C  0.22080307  0.25547406  0.11350205     0.04300
N117        N  0.19135568  0.26230884  0.09946214     0.66800
H118        H  0.20285261  0.26149254  0.15856925     0.15700
H119        H  0.29453365  0.23443320  0.09793229     0.15400
N120        N  0.30744726  0.23560789  0.15709203     0.74500
O121        O  0.15542511  0.23482250  0.09914119    -0.38900
O122        O  0.19981166  0.29738249  0.09299016    -0.38900
O123        O  0.30609586  0.20257346  0.15482812    -0.39600
O124        O  0.33819293  0.26509395  0.16800479    -0.39700
C125        C  0.24702286  0.46774274  0.36036006    -0.11900
C126        C  0.25036195  0.00141087  0.34484580     0.05100
C127        C  0.25177169  0.03287314  0.36213644    -0.07200
C128        C  0.25086804  0.03072542  0.39424642    -0.08000
C129        C  0.24876168  0.99800626  0.40980360    -0.02500
C130        C  0.24657382  0.46596952  0.39248976     0.04300
N131        N  0.24589324  0.43269141  0.40726352     0.66800
H132        H  0.24593436  0.44331539  0.34761630     0.15700
H133        H  0.25160079  0.05489528  0.40713339     0.15400
N134        N  0.25265421  0.06655375  0.34775539     0.74500
O135        O  0.21391189  0.39968166  0.40827249    -0.38900
O136        O  0.27819912  0.43470499  0.41514927    -0.38900
O137        O  0.22542715  0.07431264  0.35368265    -0.39600
O138        O  0.28473454  0.09336495  0.33607831    -0.39700
C139        C  0.22240104  0.46664259  0.11070425    -0.11900
C140        C  0.24836236  0.00139954  0.09472719     0.05100
C141        C  0.27362712  0.03621192  0.11155111    -0.07200
C142        C  0.27326133  0.03513606  0.14367949    -0.08000
C143        C  0.24787504  0.00006841  0.15982497    -0.02500
C144        C  0.22151323  0.46565745  0.14284040     0.04300
N145        N  0.19231004  0.43013177  0.15788697     0.66800
H146        H  0.20168275  0.44006438  0.09831656     0.15700
H147        H  0.29343129  0.06198571  0.15603148     0.15400
N148        N  0.30049582  0.07278577  0.09655044     0.74500
O149        O  0.16313409  0.42958641  0.17112192    -0.38900
O150        O  0.19234526  0.39797721  0.15399212    -0.38900
O151        O  0.29057725  0.09888479  0.09264214    -0.39600
O152        O  0.33632202  0.08193616  0.09267829    -0.39700
C153        C  0.08655524  0.09415747  0.26862325    -0.11900
C154        C  0.07687019  0.07448871  0.24018033     0.05100
C155        C  0.10482390  0.08993300  0.21587218    -0.07200
C156        C  0.14210947  0.12385701  0.22104808    -0.08000
C157        C  0.15133040  0.14334296  0.24940616    -0.02500
C158        C  0.12339122  0.12840772  0.27336325     0.04300
N159        N  0.13255041  0.14711215  0.30283770     0.66800
H160        H  0.06568553  0.08219490  0.28751544     0.15700
H161        H  0.16335840  0.13636739  0.20238105     0.15400
N162        N  0.09537161  0.07277976  0.18568247     0.74500
O163        O  0.10995021  0.15813626  0.31455905    -0.38900
O164        O  0.16068795  0.14865701  0.31858007    -0.38900
O165        O  0.06108240  0.06034952  0.17448125    -0.39600
O166        O  0.12257481  0.07472176  0.16862499    -0.39700
C167        C  0.41967380  0.40191628  0.26625581    -0.11900
C168        C  0.42457980  0.42634049  0.24069339     0.05100
C169        C  0.39180088  0.41498754  0.22047977    -0.07200
C170        C  0.35582210  0.37986297  0.22632165    -0.08000
C171        C  0.35209162  0.35476417  0.25082289    -0.02500
C172        C  0.38434853  0.36583340  0.27105296     0.04300
N173        N  0.38149569  0.34131752  0.29683515     0.66800
H174        H  0.44352649  0.41120402  0.28287196     0.15700
H175        H  0.33106553  0.37092933  0.21058028     0.15400
N176        N  0.39422261  0.43813992  0.19389289     0.74500
O177        O  0.41072201  0.33707636  0.30408145    -0.38900
O178        O  0.35105726  0.32638163  0.31384421    -0.38900
O179        O  0.42376761  0.45111974  0.17615393    -0.39600
O180        O  0.36439180  0.44087463  0.18572370    -0.39700
C181        C  0.12255908  0.97919833  0.22176024    -0.11900
C182        C  0.14479414  0.49508386  0.24829994     0.05100
C183        C  0.13222317  0.51280960  0.27021012    -0.07200
C184        C  0.09698131  0.51344127  0.26536559    -0.08000
C185        C  0.07516252  0.99914692  0.23803523    -0.02500
C186        C  0.08819141  0.98150864  0.21589345     0.04300
N187        N  0.06772728  0.96666497  0.18725545     0.66800
H188        H  0.13297539  0.96635047  0.20466933     0.15700
H189        H  0.08638619  0.52501372  0.28331621     0.15400
N190        N  0.15446847  0.52946158  0.29778518     0.74500
O191        O  0.06547465  0.93597916  0.17543163    -0.38900
O192        O  0.05754508  0.98741098  0.17145749    -0.38900
O193        O  0.16614486  0.56521840  0.30449419    -0.39600
O194        O  0.15847748  0.50732593  0.31706205    -0.39700
C195        C  0.40225999  0.98471224  0.26737622    -0.11900
C196        C  0.42716939  0.00349772  0.24200126     0.05100
C197        C  0.41659429  0.52448169  0.22069586    -0.07200
C198        C  0.38156848  0.52598325  0.22567581    -0.08000
C199        C  0.35641283  0.00611762  0.25042554    -0.02500
C200        C  0.36685178  0.98529221  0.27142595     0.04300
N201        N  0.34227104  0.96553404  0.29743459     0.66800
H202        H  0.41059590  0.96970651  0.28437233     0.15700
H203        H  0.37277623  0.54124828  0.20925744     0.15400
N204        N  0.43999327  0.54355831  0.19362485     0.74500
O205        O  0.32591786  0.92824088  0.30001710    -0.38900
O206        O  0.33984403  0.98562567  0.31915020    -0.38900
O207        O  0.46140938  0.53144962  0.18136810    -0.39600
O208        O  0.43749744  0.57140389  0.18067295    -0.39700
C209        C  0.09318800  0.08560064  0.02308573    -0.11900
C210        C  0.07150641  0.07440545  0.99549245     0.05100
C211        C  0.08538119  0.10095915  0.46981326    -0.07200
C212        C  0.12013123  0.13807362  0.47296288    -0.08000
C213        C  0.14133376  0.14862776  0.00083133    -0.02500
C214        C  0.12784970  0.12237162  0.02595578     0.04300
N215        N  0.14847202  0.13338557  0.05473232     0.66800
H216        H  0.08239542  0.06592487  0.04297301     0.15700
H217        H  0.13143906  0.15817713  0.45339614     0.15400
N218        N  0.06539647  0.09013072  0.44061226     0.74500
O219        O  0.15059486  0.16243360  0.56939014    -0.38900
O220        O  0.16174251  0.11249359  0.06638915    -0.38900
O221        O  0.06534959  0.11641823  0.42344759    -0.39600
O222        O  0.05179539  0.05540858  0.93050742    -0.39700
C223        C  0.41591917  0.39383291  0.47969250    -0.11900
C224        C  0.42501528  0.42187034  0.00297341     0.05100
C225        C  0.39851403  0.41255852  0.02803413    -0.07200
C226        C  0.36166986  0.37702879  0.02735701    -0.08000
C227        C  0.35212970  0.34963988  0.00349098    -0.02500
C228        C  0.38005719  0.35772533  0.47986050     0.04300
N229        N  0.37121412  0.33052370  0.45495485     0.66800
H230        H  0.43592853  0.40068036  0.46043134     0.15700
H231        H  0.34078941  0.36994547  0.04607509     0.15400
N232        N  0.40877060  0.43814888  0.05439279     0.74500
O233        O  0.34020691  0.31953859  0.43900206    -0.38900
O234        O  0.39618132  0.32036711  0.94721834    -0.38900
O235        O  0.38210586  0.43815823  0.57066960    -0.39600
O236        O  0.44444285  0.45789717  0.06345317    -0.39700
C237        C  0.09873488  0.51381653  0.47373298    -0.11900
C238        C  0.07420233  0.00188362  0.99942057     0.05100
C239        C  0.08596754  0.98951507  0.02623773    -0.07200
C240        C  0.12170959  0.98869608  0.02575738    -0.08000
C241        C  0.14612791  0.00106617  0.99973526    -0.02500
C242        C  0.13435258  0.51311568  0.47341631     0.04300
N243        N  0.15701556  0.52267898  0.44558208     0.66800
H244        H  0.08916492  0.52202605  0.45298311     0.15700
H245        H  0.13109983  0.97922021  0.04602585     0.15400
N246        N  0.06243628  0.97791919  0.05392681     0.74500
O247        O  0.16400890  0.49731004  0.43353164    -0.38900
O248        O  0.16807924  0.05780446  0.43259278    -0.38900
O249        O  0.06415970  0.45413368  0.07242189    -0.39600
O250        O  0.04213073  0.99382812  0.06122766    -0.39700
C251        C  0.35432306  0.97379196  0.47938180    -0.11900
C252        C  0.34900665  0.99510444  0.00307276     0.05100
C253        C  0.37901251  0.51562149  0.02448622    -0.07200
C254        C  0.41446860  0.51487514  0.02237790    -0.08000
C255        C  0.42139362  0.99516762  0.99857256    -0.02500
C256        C  0.39056801  0.97435926  0.47601128     0.04300
N257        N  0.39546888  0.95430581  0.45001330     0.66800
H258        H  0.33084565  0.95835816  0.46263300     0.15700
H259        H  0.43689811  0.52955480  0.04001332     0.15400
N260        N  0.37350549  0.53625125  0.04939493     0.74500
O261        O  0.36537968  0.92568125  0.43753636    -0.38900
O262        O  0.42925635  0.96629259  0.43815974    -0.38900
O263        O  0.34787567  0.51693836  0.06980194    -0.39600
O264        O  0.39754436  0.57287640  0.05312884    -0.39700
C265        C  0.02075156  0.10572002  0.22167651    -0.11900
C266        C  0.00384314  0.07652111  0.24473379     0.05100
C267        C  0.48907201  0.08481652  0.27360598    -0.07200
C268        C  0.48864342  0.12080652  0.27554100    -0.08000
C269        C  0.00533381  0.14956230  0.25034115    -0.02500
C270        C  0.02214878  0.14214056  0.22449404     0.04300
N271        N  0.03926717  0.17074931  0.20027213     0.66800
H272        H  0.03230148  0.09989491  0.20098106     0.15700
H273        H  0.47663763  0.12716978  0.29577780     0.15400
N274        N  0.47538416  0.05784052  0.29945464     0.74500
O275        O  0.07660457  0.19019861  0.19705180    -0.38900
O276        O  0.01715233  0.17242614  0.17968272    -0.38900
O277        O  0.48958362  0.03540443  0.30481668    -0.39600
O278        O  0.45170953  0.05897269  0.31872989    -0.39700
C279        C  0.01567348  0.41804908  0.26457949    -0.11900
C280        C  0.99894753  0.42455358  0.23794875     0.05100
C281        C  0.48000025  0.39327954  0.21756393    -0.07200
C282        C  0.47860327  0.35697217  0.22342035    -0.08000
C283        C  0.99705280  0.35164252  0.24774618    -0.02500
C284        C  0.01560444  0.38240642  0.26925940     0.04300
N285        N  0.03326235  0.37728593  0.29650149     0.66800
H286        H  0.02855051  0.44077549  0.28210215     0.15700
H287        H  0.46433667  0.33297938  0.20697361     0.15400
N288        N  0.46223770  0.39744643  0.18977589     0.74500
O289        O  0.07066328  0.39562207  0.29941973    -0.38900
O290        O  0.01151094  0.35807082  0.31896096    -0.38900
O291        O  0.47891020  0.42957700  0.17480249    -0.39600
O292        O  0.43271313  0.36751924  0.17799378    -0.39700
C293        C  0.46613360  0.23481482  0.39602282    -0.11900
C294        C  0.00298697  0.25296467  0.40999954     0.05100
C295        C  0.03864585  0.27093314  0.39273293    -0.07200
C296        C  0.03697891  0.26961616  0.36064909    -0.08000
C297        C  0.00037299  0.25089512  0.34492397    -0.02500
C298        C  0.46455393  0.23362428  0.36395342     0.04300
N299        N  0.42632702  0.21408321  0.34944985     0.66800
H300        H  0.43828878  0.22085570  0.40858876     0.15700
H301        H  0.06478311  0.28372156  0.34803113     0.15400
N302        N  0.07688437  0.29107761  0.40721737     0.74500
O303        O  0.41067102  0.17788156  0.34224786    -0.38900
O304        O  0.40578631  0.23100865  0.34824513    -0.38900
O305        O  0.09867887  0.27548904  0.40736871    -0.39600
O306        O  0.09110034  0.32663206  0.41581334    -0.39700
C307        C  0.03683569  0.26644529  0.11066908    -0.11900
C308        C  0.00027283  0.24908515  0.09491995     0.05100
C309        C  0.46409196  0.23212014  0.11406298    -0.07200
C310        C  0.46583965  0.23269000  0.14612381    -0.08000
C311        C  0.00278161  0.25002714  0.15997082    -0.02500
C312        C  0.03844887  0.26708874  0.14273916     0.04300
N313        N  0.07665811  0.28498874  0.15724215     0.66800
H314        H  0.06465757  0.27970498  0.09808896     0.15700
H315        H  0.43808627  0.21977272  0.15877726     0.15400
N316        N  0.42584463  0.21460808  0.09966041     0.74500
O317        O  0.09276119  0.26430494  0.16276325    -0.38900
O318        O  0.09700826  0.32233848  0.15952419    -0.38900
O319        O  0.40475675  0.17725861  0.09791931    -0.39600
O320        O  0.41072250  0.23594020  0.09316811    -0.39700
C321        C  0.51275613  0.09728220  0.02276102    -0.11900
C322        C  0.99564150  0.07236259  0.99454820     0.05100
C323        C  0.97706703  0.08411146  0.47178962    -0.07200
C324        C  0.97605815  0.11933268  0.97577385    -0.08000
C325        C  0.49447517  0.14428838  0.00295618    -0.02500
C326        C  0.51331081  0.13335251  0.02543160     0.04300
N327        N  0.53224297  0.15812198  0.05148006     0.66800
H328        H  0.52561672  0.08833396  0.04106861     0.15700
H329        H  0.96222590  0.12847989  0.95833686     0.15400
N330        N  0.95924892  0.06085093  0.44471870     0.74500
O331        O  0.51132214  0.16403136  0.57060449    -0.38900
O332        O  0.56868038  0.17075014  0.05667885    -0.38900
O333        O  0.92849062  0.05913601  0.43319270    -0.39600
O334        O  0.97653665  0.04603942  0.93014209    -0.39700
C335        C  0.01920594  0.37938252  0.47593324    -0.11900
C336        C  0.50629389  0.35605627  0.00440745     0.05100
C337        C  0.49184375  0.36778269  0.02946599    -0.07200
C338        C  0.48956152  0.40249437  0.02727275    -0.08000
C339        C  0.00200162  0.42585951  0.99832727    -0.02500
C340        C  0.01602166  0.41374193  0.47322554     0.04300
N341        N  0.02576021  0.43490481  0.44431325     0.66800
H342        H  0.02917123  0.36934640  0.45647853     0.15700
H343        H  0.47899585  0.41176686  0.04680638     0.15400
N344        N  0.48019375  0.34510327  0.05742199     0.74500
O345        O  0.04895621  0.43180153  0.42569939    -0.38900
O346        O  0.00861297  0.45375411  0.43591751    -0.38900
O347        O  0.50393013  0.33662719  0.07084301    -0.39600
O348        O  0.44735144  0.33594503  0.06990307    -0.39700
O349        O  0.46721471  0.23357406  0.54773802    -0.74100
O350        O  0.46850166  0.23730689  0.96007981    -0.74100
O351        O  0.46475500  0.18478009  0.50254194    -0.74200
O352        O  0.47051802  0.28581085  0.00517907    -0.74200
O353        O  0.03797989  0.31657326  0.50220487    -0.74200
O354        O  0.03156574  0.21487990  0.00348660    -0.74100
O355        O  0.03550262  0.26579229  0.95901180    -0.74100
O356        O  0.03414913  0.26570771  0.54664974    -0.74200
Ni357      Ni  0.46563565  0.23442246  0.50386823     1.25400
Ni358      Ni  0.03711738  0.26676308  0.00288293     1.25400
C359        C  0.00076631  0.24944153  0.56087096     0.88100
C360        C  0.00279282  0.25229191  0.94406908     0.88000
C361        C  0.49689133  0.18318397  0.50378133     0.88000
C362        C  0.50518296  0.31775907  0.50463773     0.88200
O363        O  0.46989790  0.18459730  0.75548215    -0.74100
O364        O  0.46597828  0.28116129  0.75183658    -0.74100
O365        O  0.46901407  0.23185482  0.71005181    -0.74200
O366        O  0.46725719  0.23410775  0.79766360    -0.74200
O367        O  0.03429113  0.26758666  0.79663781    -0.74200
O368        O  0.03581540  0.26904152  0.70894902    -0.74100
O369        O  0.03300771  0.31665900  0.75284799    -0.74100
O370        O  0.03701627  0.22003252  0.75238296    -0.74200
Ni371      Ni  0.46566611  0.23168330  0.75381638     1.25400
Ni372      Ni  0.03742219  0.26961007  0.75281781     1.25400
C373        C  0.00438387  0.18663987  0.75269166     0.88100
C374        C  0.99917295  0.31484215  0.75068056     0.88000
C375        C  0.00303275  0.25044122  0.69405079     0.88000
C376        C  0.00089038  0.25090837  0.81084292     0.88200
C377        C  0.46253300  0.46138218  0.50014599     0.02600
C378        C  0.99976027  0.46296040  0.49810374     0.02600
C379        C  0.03514925  0.00027906  0.49685309     0.02600
C380        C  0.03370095  0.03574805  0.49435915     0.02600
C381        C  0.99650986  0.03438625  0.49319454     0.02600
C382        C  0.46042699  0.99687850  0.49703553     0.02600
C383        C  0.03816439  0.03657715  0.73732984     0.02600
C384        C  0.03725361  0.99972096  0.73511679     0.02600
C385        C  0.99993897  0.46341859  0.73446395     0.02600
C386        C  0.46349038  0.46443676  0.73747122     0.02600
C387        C  0.46504253  0.00170947  0.73948567     0.02600
C388        C  0.00231165  0.03750656  0.73976472     0.02600
O389        O  0.23119687  0.46700056  0.54659982    -0.74100
O390        O  0.23043485  0.46510947  0.95847278    -0.74100
O391        O  0.27897800  0.46399648  0.50280336    -0.74200
O392        O  0.18214241  0.46734642  0.00226651    -0.74200
O393        O  0.21670168  0.03353034  0.49992170    -0.74200
O394        O  0.31372189  0.03040140  0.00339677    -0.74100
O395        O  0.26621003  0.03098268  0.95785847    -0.74100
O396        O  0.26444945  0.03324835  0.54546547    -0.74200
Ni397      Ni  0.22944366  0.46319092  0.50262927     1.25400
Ni398      Ni  0.26647733  0.03435383  0.00160427     1.25400
C399        C  0.24789660  0.00058911  0.56062705     0.88100
C400        C  0.24862251  0.99765342  0.94375474     0.88000
C401        C  0.31186035  0.99648548  0.50336681     0.88000
C402        C  0.18351101  0.00074301  0.50066781     0.88200
O403        O  0.23468184  0.46831234  0.79638458    -0.74100
O404        O  0.23580232  0.46756530  0.70855188    -0.74100
O405        O  0.28585823  0.47040281  0.75346900    -0.74200
O406        O  0.18486038  0.46538343  0.75119601    -0.74200
O407        O  0.21548440  0.03110571  0.75248544    -0.74200
O408        O  0.31665490  0.03642635  0.75131388    -0.74100
O409        O  0.26490751  0.03330758  0.70811226    -0.74100
O410        O  0.26666818  0.03402503  0.79595803    -0.74200
Ni411      Ni  0.23424730  0.46554647  0.75248953     1.25400
Ni412      Ni  0.26708348  0.03609578  0.75201995     1.25400
C413        C  0.25053053  0.00109256  0.81078901     0.88100
C414        C  0.24967923  0.00008113  0.69385012     0.88000
C415        C  0.31778965  0.50431977  0.75213739     0.88000
C416        C  0.18380460  0.49778112  0.75110405     0.88200
O417        O  0.18115283  0.21885455  0.50134545    -0.74100
O418        O  0.28162389  0.31460593  0.00487096    -0.74100
O419        O  0.23289594  0.26825593  0.95936777    -0.74200
O420        O  0.22991906  0.26465441  0.54711549    -0.74200
O421        O  0.26250165  0.23099070  0.54715066    -0.74200
O422        O  0.26190314  0.23121827  0.95953881    -0.74100
O423        O  0.31297856  0.27923459  0.50315449    -0.74100
O424        O  0.21160091  0.18332079  0.00351837    -0.74200
Ni425      Ni  0.23054764  0.26790525  0.50317614     1.25400
Ni426      Ni  0.26359356  0.22993268  0.50331252     1.25400
C427        C  0.18011716  0.18544432  0.50184136     0.88100
C428        C  0.31397118  0.31266290  0.50405101     0.88000
C429        C  0.24762629  0.24996896  0.94487568     0.88000
C430        C  0.24604387  0.24756482  0.56168529     0.88200
O431        O  0.18588866  0.21338742  0.75339651    -0.74100
O432        O  0.28150002  0.31459630  0.75236514    -0.74100
O433        O  0.23340127  0.26353272  0.70920889    -0.74200
O434        O  0.23394476  0.26437815  0.79689162    -0.74200
O435        O  0.26835390  0.23257152  0.79731669    -0.74200
O436        O  0.27070713  0.23477153  0.70946420    -0.74100
O437        O  0.31753448  0.28432318  0.75437902    -0.74100
O438        O  0.22184526  0.18299077  0.75209658    -0.74200
Ni439      Ni  0.23240966  0.26505650  0.75302835     1.25400
Ni440      Ni  0.27093443  0.23259496  0.75340525     1.25400
C441        C  0.18822416  0.18170568  0.75212299     0.88100
C442        C  0.31520710  0.31604455  0.75306315     0.88000
C443        C  0.25208070  0.24918145  0.69477504     0.88000
C444        C  0.25089941  0.24828285  0.81166875     0.88200
C445        C  0.25988508  0.22565167  0.89559255    -0.11900
C446        C  0.24830521  0.25012515  0.91077578     0.05100
C447        C  0.23773999  0.27398623  0.89297017    -0.07200
C448        C  0.23876099  0.27278164  0.86089889    -0.10400
C449        C  0.25031246  0.24828539  0.84574205    -0.02500
C450        C  0.26097397  0.22450683  0.86353401     0.04300
N451        N  0.27218043  0.19833181  0.84955765     0.66800
H452        H  0.26794767  0.20686836  0.90861856     0.15700
H453        H  0.23073247  0.29155855  0.84782551     0.15400
N454        N  0.22646509  0.30011545  0.90693090     0.74500
O455        O  0.30856732  0.20934041  0.84614202    -0.38900
O456        O  0.24616907  0.16253547  0.84475605    -0.38900
O457        O  0.25240367  0.33594436  0.91172813    -0.39600
O458        O  0.19008019  0.28886041  0.91073317    -0.39700
C459        C  0.22354332  0.25610415  0.64544116    -0.11900
C460        C  0.25130407  0.24884565  0.66070943     0.05100
C461        C  0.27680042  0.24054847  0.64306047    -0.07200
C462        C  0.27390513  0.23951129  0.61099540    -0.08000
C463        C  0.24659342  0.24744358  0.59573570    -0.02500
C464        C  0.22106656  0.25564517  0.61338735     0.04300
N465        N  0.19188812  0.26284464  0.59929899     0.66800
H466        H  0.20328797  0.26203205  0.65841802     0.15700
H467        H  0.29408816  0.23353244  0.59796246     0.15400
N468        N  0.30671175  0.23441436  0.65712548     0.74500
O469        O  0.15591505  0.23547857  0.59866148    -0.38900
O470        O  0.20059436  0.29804044  0.59302199    -0.38900
O471        O  0.30405389  0.20071876  0.65578603    -0.39600
O472        O  0.33825376  0.26377407  0.66718525    -0.39700
C473        C  0.24713140  0.46831335  0.86036237    -0.11900
C474        C  0.25033041  0.00107545  0.84483389     0.05100
C475        C  0.25174449  0.03255393  0.86210859    -0.07200
C476        C  0.25089519  0.03045429  0.89421970    -0.08000
C477        C  0.24886340  0.99778435  0.90980038    -0.02500
C478        C  0.24653041  0.46648220  0.89248523     0.04300
N479        N  0.24542801  0.43300430  0.90726138     0.66800
H480        H  0.24589799  0.44381299  0.84762708     0.15700
H481        H  0.25161951  0.05463120  0.90709045     0.15400
N482        N  0.25257928  0.06620680  0.84771540     0.74500
O483        O  0.21313306  0.40030842  0.90855031    -0.38900
O484        O  0.27756256  0.43447618  0.91489773    -0.38900
O485        O  0.22539713  0.07400297  0.85372318    -0.39600
O486        O  0.28462134  0.09299209  0.83597103    -0.39700
C487        C  0.22237346  0.46676286  0.61079472    -0.11900
C488        C  0.24840276  0.00135246  0.59472153     0.05100
C489        C  0.27385820  0.03608644  0.61155959    -0.07200
C490        C  0.27359245  0.03494018  0.64368615    -0.08000
C491        C  0.24810725  0.99989133  0.65981341    -0.02500
C492        C  0.22157182  0.46591680  0.64293190     0.04300
N493        N  0.19228334  0.43052961  0.65806649     0.66800
H494        H  0.20152775  0.44017888  0.59847237     0.15700
H495        H  0.29388385  0.06172871  0.65605202     0.15400
N496        N  0.30079232  0.07265303  0.59657479     0.74500
O497        O  0.16276409  0.42995095  0.67071859    -0.38900
O498        O  0.19261599  0.39844255  0.65474069    -0.38900
O499        O  0.29069897  0.09855898  0.59226777    -0.39600
O500        O  0.33675869  0.08204949  0.59317150    -0.39700
C501        C  0.08694750  0.09387118  0.76877537    -0.11900
C502        C  0.07707683  0.07438892  0.74025234     0.05100
C503        C  0.10480605  0.09003783  0.71580799    -0.07200
C504        C  0.14203293  0.12406110  0.72089864    -0.08000
C505        C  0.15144446  0.14333773  0.74934332    -0.02500
C506        C  0.12378882  0.12812353  0.77346955     0.04300
N507        N  0.13326932  0.14654289  0.80305466     0.66800
H508        H  0.06624327  0.08173586  0.78775944     0.15700
H509        H  0.16310151  0.13676684  0.70213327     0.15400
N510        N  0.09520993  0.07296398  0.68559193     0.74500
O511        O  0.11096477  0.15772517  0.81508924    -0.38900
O512        O  0.16153483  0.14788553  0.81849626    -0.38900
O513        O  0.06080423  0.06034148  0.67456326    -0.39600
O514        O  0.12235896  0.07509210  0.66836901    -0.39700
C515        C  0.41951616  0.40187564  0.76641314    -0.11900
C516        C  0.42452829  0.42627117  0.74080930     0.05100
C517        C  0.39180133  0.41497921  0.72055085    -0.07200
C518        C  0.35577656  0.37991107  0.72636843    -0.08000
C519        C  0.35193794  0.35484130  0.75091285    -0.02500
C520        C  0.38411199  0.36587691  0.77122032     0.04300
N521        N  0.38107770  0.34141769  0.79709532     0.66800
H522        H  0.44333466  0.41113513  0.78305846     0.15700
H523        H  0.33107125  0.37099507  0.71057731     0.15400
N524        N  0.39431441  0.43813845  0.69394531     0.74500
O525        O  0.41020854  0.33709381  0.80449725    -0.38900
O526        O  0.35057660  0.32663445  0.81403423    -0.38900
O527        O  0.42383190  0.45096579  0.67619286    -0.39600
O528        O  0.36454610  0.44096987  0.68575239    -0.39700
C529        C  0.12274046  0.97911885  0.72163757    -0.11900
C530        C  0.14543201  0.49615734  0.74808828     0.05100
C531        C  0.13286947  0.51412738  0.76976570    -0.07200
C532        C  0.09738658  0.51427927  0.76497628    -0.08000
C533        C  0.07537859  0.99906080  0.73802687    -0.02500
C534        C  0.08839708  0.98149810  0.71581496     0.04300
N535        N  0.06793160  0.96678276  0.68715992     0.66800
H536        H  0.13316296  0.96635207  0.70448606     0.15700
H537        H  0.08683680  0.52604544  0.78281478     0.15400
N538        N  0.15543987  0.53160903  0.79703104     0.74500
O539        O  0.06564010  0.93612699  0.67524389    -0.38900
O540        O  0.05772237  0.98758324  0.67146101    -0.38900
O541        O  0.17061215  0.56847431  0.80147433    -0.39600
O542        O  0.15567201  0.50960888  0.81836772    -0.39700
C543        C  0.40244296  0.98444659  0.76747045    -0.11900
C544        C  0.42744107  0.00335429  0.74216152     0.05100
C545        C  0.41668486  0.52439985  0.72075595    -0.07200
C546        C  0.38169885  0.52597733  0.72570912    -0.08000
C547        C  0.35659670  0.00585905  0.75050936    -0.02500
C548        C  0.36699323  0.98496407  0.77147592     0.04300
N549        N  0.34232987  0.96507688  0.79741529     0.66800
H550        H  0.41073528  0.96938406  0.78444778     0.15700
H551        H  0.37294213  0.54124309  0.70926315     0.15400
N552        N  0.44007765  0.54336774  0.69365733     0.74500
O553        O  0.32578744  0.92774875  0.79979594    -0.38900
O554        O  0.34008301  0.98506373  0.81929318    -0.38900
O555        O  0.46152352  0.53123743  0.68148564    -0.39600
O556        O  0.43753847  0.57112451  0.68059034    -0.39700
C557        C  0.09322580  0.08585422  0.52288974    -0.11900
C558        C  0.07160478  0.07461130  0.49526458     0.05100
C559        C  0.08511768  0.10087245  0.97011013    -0.07200
C560        C  0.11972456  0.13807487  0.97331985    -0.08000
C561        C  0.14168528  0.14866163  0.50050495    -0.02500
C562        C  0.12800019  0.12255030  0.52570846     0.04300
N563        N  0.14851899  0.13364441  0.55452492     0.66800
H564        H  0.08232567  0.06630533  0.54280321     0.15700
H565        H  0.13091803  0.15828519  0.95379106     0.15400
N566        N  0.06510749  0.09006299  0.94091827     0.74500
O567        O  0.15055063  0.16209291  0.06971905    -0.38900
O568        O  0.16172064  0.11276959  0.56632328    -0.38900
O569        O  0.06493012  0.11633935  0.92381957    -0.39600
O570        O  0.05198467  0.05543414  0.43026086    -0.39700
C571        C  0.41560689  0.39369698  0.97959742    -0.11900
C572        C  0.42534077  0.42193859  0.50312122     0.05100
C573        C  0.39887139  0.41255795  0.52820819    -0.07200
C574        C  0.36206465  0.37698481  0.52754440    -0.08000
C575        C  0.35250841  0.34966136  0.50362399    -0.02500
C576        C  0.37974393  0.35758712  0.97980451     0.04300
N577        N  0.37099771  0.33021875  0.95504172     0.66800
H578        H  0.43564497  0.40046501  0.96036667     0.15700
H579        H  0.34121748  0.36983605  0.54629654     0.15400
N580        N  0.40912426  0.43813044  0.55457475     0.74500
O581        O  0.34018571  0.31930954  0.93885929    -0.38900
O582        O  0.39656200  0.32110473  0.44667155    -0.38900
O583        O  0.38175209  0.43812456  0.07052281    -0.39600
O584        O  0.44478520  0.45781223  0.56367210    -0.39700
C585        C  0.09913134  0.51469093  0.97350800    -0.11900
C586        C  0.07425664  0.00211665  0.49925044     0.05100
C587        C  0.08600810  0.98985142  0.52612637    -0.07200
C588        C  0.12178320  0.98910388  0.52573309    -0.08000
C589        C  0.14623855  0.00144693  0.49973464    -0.02500
C590        C  0.13495371  0.51441292  0.97341786     0.04300
N591        N  0.15820140  0.52488805  0.94585804     0.66800
H592        H  0.08978568  0.52316129  0.95276575     0.15700
H593        H  0.13115274  0.97967744  0.54604028     0.15400
N594        N  0.06241501  0.97826617  0.55378177     0.74500
O595        O  0.16479377  0.49966305  0.93305471    -0.38900
O596        O  0.16777357  0.05750911  0.93260938    -0.38900
O597        O  0.06391470  0.45352365  0.57258708    -0.39600
O598        O  0.04211831  0.99420118  0.56103578    -0.39700
C599        C  0.35453766  0.97369078  0.97976840    -0.11900
C600        C  0.34873415  0.99487179  0.50292663     0.05100
C601        C  0.37933520  0.51587468  0.52447742    -0.07200
C602        C  0.41475302  0.51503311  0.52248292    -0.08000
C603        C  0.42125131  0.99531657  0.49799837    -0.02500
C604        C  0.39074282  0.97412716  0.97657108     0.04300
N605        N  0.39565285  0.95390788  0.95069612     0.66800
H606        H  0.33106672  0.95811647  0.96304429     0.15700
H607        H  0.43717612  0.52978841  0.54011064     0.15400
N608        N  0.37389324  0.53674151  0.54922427     0.74500
O609        O  0.36557167  0.92516224  0.93831707    -0.38900
O610        O  0.42942221  0.96592180  0.93880042    -0.38900
O611        O  0.34967730  0.51751545  0.57047826    -0.39600
O612        O  0.39693449  0.57373157  0.55196404    -0.39700
C613        C  0.02083183  0.10558339  0.72178038    -0.11900
C614        C  0.00412975  0.07648387  0.74492350     0.05100
C615        C  0.48913451  0.08463942  0.77373717    -0.07200
C616        C  0.48854449  0.12055556  0.77559242    -0.08000
C617        C  0.00558814  0.14951870  0.75048346    -0.02500
C618        C  0.02218709  0.14198441  0.72456067     0.04300
N619        N  0.03902820  0.17045725  0.70022455     0.66800
H620        H  0.03222354  0.09968739  0.70103357     0.15700
H621        H  0.47634424  0.12683945  0.79575120     0.15400
N622        N  0.47539290  0.05765772  0.79958029     0.74500
O623        O  0.07634636  0.19018695  0.69694455    -0.38900
O624        O  0.01672261  0.17178471  0.67963446    -0.38900
O625        O  0.48969702  0.03533365  0.80504176    -0.39600
O626        O  0.45158092  0.05869917  0.81876679    -0.39700
C627        C  0.01627486  0.41828296  0.76415065    -0.11900
C628        C  0.99945878  0.42463027  0.73750004     0.05100
C629        C  0.47983523  0.39307349  0.71773525    -0.07200
C630        C  0.47839424  0.35673761  0.72355669    -0.08000
C631        C  0.99773674  0.35182302  0.74750636    -0.02500
C632        C  0.01630958  0.38270352  0.76892352     0.04300
N633        N  0.03407696  0.37776258  0.79617175     0.66800
H634        H  0.02913167  0.44107821  0.78162353     0.15700
H635        H  0.46411102  0.33277041  0.70709083     0.15400
N636        N  0.46209875  0.39729141  0.68995428     0.74500
O637        O  0.07149573  0.39597064  0.79893232    -0.38900
O638        O  0.01244217  0.35893487  0.81879139    -0.38900
O639        O  0.47887904  0.42939222  0.67494863    -0.39600
O640        O  0.43250949  0.36740721  0.67819120    -0.39700
C641        C  0.46563548  0.23397598  0.89600490    -0.11900
C642        C  0.00307306  0.25307297  0.91000185     0.05100
C643        C  0.03875590  0.27206854  0.89279772    -0.07200
C644        C  0.03720275  0.27066655  0.86071131    -0.08000
C645        C  0.00067550  0.25089860  0.84493682    -0.02500
C646        C  0.46411095  0.23268384  0.86393232     0.04300
N647        N  0.42592628  0.21246026  0.84939554     0.66800
H648        H  0.43778580  0.21956897  0.90855944     0.15700
H649        H  0.06501015  0.28561969  0.84812766     0.15400
N650        N  0.07687113  0.29347259  0.90735067     0.74500
O651        O  0.41106911  0.17638966  0.84203782    -0.38900
O652        O  0.40466273  0.22860929  0.84826114    -0.38900
O653        O  0.10022879  0.27968733  0.90697221    -0.39600
O654        O  0.08931203  0.32847552  0.91665527    -0.39700
C655        C  0.03721686  0.26659499  0.61065597    -0.11900
C656        C  0.00062129  0.24915275  0.59494396     0.05100
C657        C  0.46432503  0.23251126  0.61402290    -0.07200
C658        C  0.46599466  0.23304113  0.64608586    -0.08000
C659        C  0.00324209  0.25006388  0.65999370    -0.02500
C660        C  0.03888379  0.26721991  0.64272861     0.04300
N661        N  0.07711654  0.28522268  0.65719972     0.66800
H662        H  0.06501776  0.27993537  0.59804469     0.15700
H663        H  0.43823131  0.22046464  0.65870079     0.15400
N664        N  0.42613930  0.21549619  0.59956772     0.74500
O665        O  0.09325645  0.26459407  0.66281122    -0.38900
O666        O  0.09742890  0.32258381  0.65939751    -0.38900
O667        O  0.40459324  0.17818993  0.59783792    -0.39600
O668        O  0.41153877  0.23726717  0.59299813    -0.39700
C669        C  0.51256101  0.09706210  0.52245329    -0.11900
C670        C  0.99576917  0.07256759  0.49445010     0.05100
C671        C  0.97682113  0.08384289  0.97193380    -0.07200
C672        C  0.97632412  0.11959841  0.47564199    -0.08000
C673        C  0.49458957  0.14433833  0.50276802    -0.02500
C674        C  0.51317836  0.13314755  0.52526847     0.04300
N675        N  0.53187434  0.15764284  0.55149546     0.66800
H676        H  0.52523960  0.08790645  0.54075528     0.15700
H677        H  0.96259259  0.12882185  0.45817516     0.15400
N678        N  0.95891352  0.06052413  0.94490542     0.74500
O679        O  0.51177968  0.16424045  0.07085922    -0.38900
O680        O  0.56810420  0.16970642  0.55713609    -0.38900
O681        O  0.92806388  0.05871112  0.93347640    -0.39600
O682        O  0.97688037  0.04632555  0.43001794    -0.39700
C683        C  0.01962475  0.37954373  0.97585120    -0.11900
C684        C  0.50688707  0.35628204  0.50449326     0.05100
C685        C  0.49239781  0.36796302  0.52955481    -0.07200
C686        C  0.48996886  0.40259177  0.52734047    -0.08000
C687        C  0.00187556  0.42573557  0.49871779    -0.02500
C688        C  0.01649494  0.41392976  0.97302127     0.04300
N689        N  0.02662882  0.43518683  0.94415336     0.66800
H690        H  0.02986240  0.36958434  0.95651727     0.15700
H691        H  0.47938502  0.41183947  0.54687717     0.15400
N692        N  0.48083529  0.34531085  0.55752777     0.74500
O693        O  0.05037322  0.43244222  0.92589987    -0.38900
O694        O  0.00930071  0.45372689  0.93541175    -0.38900
O695        O  0.50457491  0.33676317  0.57085664    -0.39600
O696        O  0.44808337  0.33625972  0.57012041    -0.39700
O697        O  0.46708648  0.73364072  0.04767688    -0.74100
O698        O  0.46853729  0.73721377  0.46006791    -0.74100
O699        O  0.46471760  0.68478749  0.00257004    -0.74200
O700        O  0.47049660  0.78575209  0.50510508    -0.74200
O701        O  0.03759320  0.81635542  0.00190777    -0.74200
O702        O  0.03227448  0.71533728  0.50335905    -0.74100
O703        O  0.03601361  0.76613828  0.45882784    -0.74100
O704        O  0.03387087  0.76566304  0.04646167    -0.74200
Ni705      Ni  0.46559620  0.73443669  0.00381300     1.25400
Ni706      Ni  0.03770692  0.76719697  0.50269682     1.25400
C707        C  0.00052450  0.74944908  0.06072781     0.88100
C708        C  0.00327557  0.75258064  0.44391566     0.88000
C709        C  0.49685384  0.68319224  0.00385904     0.88000
C710        C  0.50516491  0.81778272  0.00456734     0.88200
O711        O  0.46951963  0.68465378  0.25546830    -0.74100
O712        O  0.46552126  0.78114885  0.25181803    -0.74100
O713        O  0.46857598  0.73184880  0.21002913    -0.74200
O714        O  0.46691277  0.73416075  0.29766603    -0.74200
O715        O  0.03467077  0.76790320  0.29646213    -0.74200
O716        O  0.03605532  0.76938271  0.20875150    -0.74100
O717        O  0.03327258  0.81696144  0.25271153    -0.74100
O718        O  0.03737565  0.72038642  0.25216418    -0.74200
Ni719      Ni  0.46525698  0.73170566  0.25380714     1.25400
Ni720      Ni  0.03773589  0.76994016  0.25263067     1.25400
C721        C  0.00475537  0.68698324  0.25249970     0.88100
C722        C  0.99941565  0.81511240  0.25063194     0.88000
C723        C  0.00322979  0.75084740  0.19389582     0.88000
C724        C  0.00128856  0.75117695  0.31069726     0.88200
C725        C  0.46252087  0.96132383  0.00033620     0.02600
C726        C  0.99963110  0.96292539  0.99749596     0.02600
C727        C  0.03519858  0.50024758  0.99707139     0.02600
C728        C  0.03366756  0.53566504  0.99446092     0.02600
C729        C  0.99643494  0.53421828  0.99322472     0.02600
C730        C  0.46048167  0.49689204  0.99723306     0.02600
C731        C  0.03802628  0.53650144  0.23732695     0.02600
C732        C  0.03687779  0.49952965  0.23517161     0.02600
C733        C  0.99993103  0.96358601  0.23482828     0.02600
C734        C  0.46337705  0.96453383  0.23712212     0.02600
C735        C  0.46476924  0.50180669  0.23943979     0.02600
C736        C  0.00228881  0.53766272  0.23971901     0.02600
O737        O  0.23098636  0.96703763  0.04668343    -0.74100
O738        O  0.23039489  0.96489644  0.45860880    -0.74100
O739        O  0.27882893  0.96400899  0.00298580    -0.74200
O740        O  0.18201131  0.96716669  0.50231646    -0.74200
O741        O  0.21683043  0.53371376  0.99990589    -0.74200
O742        O  0.31378834  0.53039515  0.50311066    -0.74100
O743        O  0.26605955  0.53084829  0.45771194    -0.74100
O744        O  0.26467889  0.53340919  0.04534501    -0.74200
Ni745      Ni  0.22933678  0.96329510  0.00271876     1.25400
Ni746      Ni  0.26648942  0.53425327  0.50145514     1.25400
C747        C  0.24808856  0.50074443  0.06049536     0.88100
C748        C  0.24849288  0.49750675  0.44362775     0.88000
C749        C  0.31197659  0.49665113  0.00313703     0.88000
C750        C  0.18364287  0.50092323  0.00067861     0.88200
O751        O  0.23468204  0.96816481  0.29655133    -0.74100
O752        O  0.23572922  0.96748106  0.20870807    -0.74100
O753        O  0.28588035  0.97043759  0.25357912    -0.74200
O754        O  0.18470571  0.96506446  0.25138749    -0.74200
O755        O  0.21503248  0.53086476  0.25234843    -0.74200
O756        O  0.31628632  0.53636648  0.25120317    -0.74100
O757        O  0.26458016  0.53321737  0.20798198    -0.74100
O758        O  0.26621892  0.53383896  0.29582588    -0.74200
Ni759      Ni  0.23420008  0.96541534  0.25264551     1.25400
Ni760      Ni  0.26667589  0.53595183  0.25189122     1.25400
C761        C  0.25013267  0.50089256  0.31063773     0.88100
C762        C  0.24942467  0.50001301  0.19369588     0.88000
C763        C  0.31775214  0.00439850  0.25220058     0.88000
C764        C  0.18354335  0.99740612  0.25133358     0.88200
O765        O  0.18170966  0.71841891  0.00046444    -0.74100
O766        O  0.28164252  0.81461168  0.50427078    -0.74100
O767        O  0.23289945  0.76814500  0.45881365    -0.74200
O768        O  0.23013215  0.76406767  0.04642197    -0.74200
O769        O  0.26276124  0.73045301  0.04665251    -0.74200
O770        O  0.26190450  0.73111523  0.45903936    -0.74100
O771        O  0.31351847  0.77876267  0.00284749    -0.74100
O772        O  0.21167624  0.68335556  0.50307894    -0.74200
Ni773      Ni  0.23108760  0.76743095  0.00248685     1.25400
Ni774      Ni  0.26413310  0.72945067  0.00281820     1.25400
C775        C  0.18063586  0.68499706  0.00105757     0.88100
C776        C  0.31447161  0.81217399  0.00375361     0.88000
C777        C  0.24756145  0.74978191  0.44434016     0.88000
C778        C  0.24624688  0.74704431  0.06108866     0.88200
O779        O  0.18601895  0.71306812  0.25284134    -0.74100
O780        O  0.28147232  0.81439264  0.25171858    -0.74100
O781        O  0.23341851  0.76321971  0.20859053    -0.74200
O782        O  0.23406008  0.76416053  0.29628545    -0.74200
O783        O  0.26859565  0.73249735  0.29671282    -0.74200
O784        O  0.27084285  0.73458196  0.20886504    -0.74100
O785        O  0.31764318  0.78426509  0.25373536    -0.74100
O786        O  0.22207883  0.68278209  0.25155008    -0.74200
Ni787      Ni  0.23246177  0.76478490  0.25241767     1.25400
Ni788      Ni  0.27111758  0.73246562  0.25280264     1.25400
C789        C  0.18841922  0.68142050  0.25161816     0.88100
C790        C  0.31522241  0.81593797  0.25243001     0.88000
C791        C  0.25217312  0.74893881  0.19416988     0.88000
C792        C  0.25112210  0.74817890  0.31107430     0.88200
C793        C  0.26141310  0.72667911  0.39507704    -0.11900
C794        C  0.24815907  0.74982603  0.41022370     0.05100
C795        C  0.23604413  0.77241867  0.39236016    -0.07200
C796        C  0.23735567  0.77140012  0.36029463    -0.10400
C797        C  0.25056826  0.74822301  0.34516810    -0.02500
C798        C  0.26272798  0.72566945  0.36301858     0.04300
N799        N  0.27591094  0.70101405  0.34911406     0.66800
H800        H  0.27076611  0.70893210  0.40813019     0.15700
H801        H  0.22803879  0.78915105  0.34720558     0.15400
N802        N  0.22259478  0.79686385  0.40624643     0.74500
O803        O  0.31264291  0.71430633  0.34496770    -0.38900
O804        O  0.25160147  0.66452179  0.34511108    -0.38900
O805        O  0.24644273  0.83359081  0.40960375    -0.39600
O806        O  0.18594442  0.78289318  0.41134993    -0.39700
C807        C  0.22311771  0.75498070  0.14481566    -0.11900
C808        C  0.25144189  0.74860349  0.16011037     0.05100
C809        C  0.27755901  0.74115104  0.14250113    -0.07200
C810        C  0.27463818  0.73996536  0.11043561    -0.08000
C811        C  0.24679729  0.74708617  0.09513729    -0.02500
C812        C  0.22072137  0.75456051  0.11275064     0.04300
N813        N  0.19110982  0.76109160  0.09862898     0.66800
H814        H  0.20243148  0.76028705  0.15778585     0.15700
H815        H  0.29526612  0.73461486  0.09742059     0.15400
N816        N  0.30817726  0.73615987  0.15660250     0.74500
O817        O  0.15493175  0.73434189  0.10007089    -0.38900
O818        O  0.19999917  0.79583292  0.09059082    -0.38900
O819        O  0.30731161  0.70334323  0.15447748    -0.39600
O820        O  0.33867890  0.76592449  0.16750211    -0.39700
C821        C  0.24781783  0.96845327  0.36050625    -0.11900
C822        C  0.24991461  0.50084476  0.34468769     0.05100
C823        C  0.25172017  0.53249134  0.36197708    -0.07200
C824        C  0.25093604  0.53041694  0.39408910    -0.08000
C825        C  0.24863265  0.49761514  0.40966375    -0.02500
C826        C  0.24715427  0.96657286  0.39262963     0.04300
N827        N  0.24665244  0.93338845  0.40740925     0.66800
H828        H  0.24703563  0.94417338  0.34775653     0.15700
H829        H  0.25195373  0.55473148  0.40696076     0.15400
N830        N  0.25295704  0.56633593  0.34759075     0.74500
O831        O  0.21433213  0.90086351  0.40976958    -0.38900
O832        O  0.27908732  0.93474715  0.41376504    -0.38900
O833        O  0.22582179  0.57428479  0.35335563    -0.39600
O834        O  0.28520905  0.59304806  0.33606124    -0.39700
C835        C  0.22285863  0.96638462  0.11091526    -0.11900
C836        C  0.24851057  0.50148691  0.09458383     0.05100
C837        C  0.27450109  0.53597932  0.11146648    -0.07200
C838        C  0.27416678  0.53474696  0.14359529    -0.08000
C839        C  0.24804856  0.49989113  0.15966465    -0.02500
C840        C  0.22194172  0.96551322  0.14305582     0.04300
N841        N  0.19330750  0.92972678  0.15815316     0.66800
H842        H  0.20262507  0.93955380  0.09857882     0.15700
H843        H  0.29483328  0.56132571  0.15601572     0.15400
N844        N  0.30205035  0.57235223  0.09653350     0.74500
O845        O  0.16388743  0.92850898  0.17152977    -0.38900
O846        O  0.19412729  0.89797132  0.15425658    -0.38900
O847        O  0.29172535  0.59771162  0.09041478    -0.39600
O848        O  0.33840921  0.58242737  0.09530008    -0.39700
C849        C  0.08711339  0.59383275  0.26861618    -0.11900
C850        C  0.07707759  0.57419711  0.24015618     0.05100
C851        C  0.10476186  0.58959395  0.21566582    -0.07200
C852        C  0.14208574  0.62354518  0.22063793    -0.08000
C853        C  0.15164362  0.64300658  0.24900644    -0.02500
C854        C  0.12405520  0.62801506  0.27318944     0.04300
N855        N  0.13368482  0.64663582  0.30269988     0.66800
H856        H  0.06643885  0.58189280  0.28763436     0.15700
H857        H  0.16309796  0.63608135  0.20182331     0.15400
N858        N  0.09500621  0.57236879  0.18550348     0.74500
O859        O  0.11156788  0.65810760  0.31464984    -0.38900
O860        O  0.16202207  0.64808356  0.31811150    -0.38900
O861        O  0.06059794  0.55986335  0.17451782    -0.39600
O862        O  0.12203861  0.57425856  0.16826806    -0.39700
C863        C  0.41935721  0.90195319  0.26603182    -0.11900
C864        C  0.42439486  0.92638745  0.24044977     0.05100
C865        C  0.39170872  0.91510237  0.22015592    -0.07200
C866        C  0.35572072  0.87994760  0.22587467    -0.08000
C867        C  0.35189298  0.85480067  0.25036235    -0.02500
C868        C  0.38400860  0.86587268  0.27073915     0.04300
N869        N  0.38097813  0.84135711  0.29657492     0.66800
H870        H  0.44312926  0.91122616  0.28272014     0.15700
H871        H  0.33105099  0.87103157  0.21004775     0.15400
N872        N  0.39423853  0.93835104  0.19360627     0.74500
O873        O  0.41017846  0.83717558  0.30403259    -0.38900
O874        O  0.35040210  0.82638882  0.31343640    -0.38900
O875        O  0.42376986  0.95124060  0.17586099    -0.39600
O876        O  0.36447837  0.94121836  0.18545199    -0.39700
C877        C  0.12216122  0.47863419  0.22170963    -0.11900
C878        C  0.14512526  0.99571190  0.24836944     0.05100
C879        C  0.13252224  0.01352527  0.27016911    -0.07200
C880        C  0.09724008  0.01405291  0.26527637    -0.08000
C881        C  0.07487836  0.49864883  0.23812423    -0.02500
C882        C  0.08779528  0.48097477  0.21593459     0.04300
N883        N  0.06722533  0.46613024  0.18733551     0.66800
H884        H  0.13252199  0.46582183  0.20455885     0.15700
H885        H  0.08661355  0.02565299  0.28318350     0.15400
N886        N  0.15478587  0.03037808  0.29768911     0.74500
O887        O  0.06478507  0.43534702  0.17554096    -0.38900
O888        O  0.05711938  0.48693703  0.17153833    -0.38900
O889        O  0.16765112  0.06656077  0.30367275    -0.39600
O890        O  0.15740960  0.00813713  0.31767024    -0.39700
C891        C  0.40220623  0.48461647  0.26743551    -0.11900
C892        C  0.42714168  0.50339948  0.24207298     0.05100
C893        C  0.41664180  0.02463933  0.22067259    -0.07200
C894        C  0.38167076  0.02621734  0.22571929    -0.08000
C895        C  0.35627795  0.50586129  0.25036012    -0.02500
C896        C  0.36674338  0.48510829  0.27140528     0.04300
N897        N  0.34212312  0.46533183  0.29738308     0.66800
H898        H  0.41054290  0.46965123  0.28446754     0.15700
H899        H  0.37288746  0.04152238  0.20933225     0.15400
N900        N  0.44000045  0.04369333  0.19358031     0.74500
O901        O  0.32485393  0.42793521  0.29950477    -0.38900
O902        O  0.34061540  0.48539792  0.31951836    -0.38900
O903        O  0.46135613  0.03154065  0.18128210    -0.39600
O904        O  0.43751821  0.07155691  0.18064764    -0.39700
C905        C  0.09336054  0.58597194  0.02272874    -0.11900
C906        C  0.07156651  0.57454292  0.99518884     0.05100
C907        C  0.08526756  0.60046073  0.47004459    -0.07200
C908        C  0.11988023  0.63767652  0.47303054    -0.08000
C909        C  0.14214655  0.64826273  0.99986040    -0.02500
C910        C  0.12837861  0.62249124  0.02525974     0.04300
N911        N  0.14907388  0.63379684  0.05398598     0.66800
H912        H  0.08245390  0.56665534  0.04280279     0.15700
H913        H  0.13114011  0.65765920  0.45326727     0.15400
N914        N  0.06520646  0.58924953  0.44088224     0.74500
O915        O  0.15080464  0.66345035  0.56919314    -0.38900
O916        O  0.16343921  0.61371550  0.06535239    -0.38900
O917        O  0.06520198  0.61533327  0.42343981    -0.39600
O918        O  0.05144514  0.55480343  0.93027024    -0.39700
C919        C  0.41563158  0.89376198  0.47920823    -0.11900
C920        C  0.42543725  0.92178878  0.00319014     0.05100
C921        C  0.39885269  0.91217073  0.02822014    -0.07200
C922        C  0.36220072  0.87644436  0.02746328    -0.08000
C923        C  0.35295212  0.84920267  0.00352348    -0.02500
C924        C  0.37978085  0.85765046  0.47934024     0.04300
N925        N  0.37109334  0.83034746  0.45453817     0.66800
H926        H  0.43569714  0.90060086  0.45998896     0.15700
H927        H  0.34122862  0.86912805  0.04614752     0.15400
N928        N  0.40883143  0.93766115  0.05461271     0.74500
O929        O  0.34032762  0.81948711  0.43830824    -0.38900
O930        O  0.39769873  0.82104910  0.94692759    -0.38900
O931        O  0.38162863  0.93779829  0.57028108    -0.39600
O932        O  0.44442876  0.95746687  0.06383109    -0.39700
C933        C  0.09920418  0.01482600  0.47342663    -0.11900
C934        C  0.07434215  0.50217030  0.99941930     0.05100
C935        C  0.08625759  0.49012856  0.02632014    -0.07200
C936        C  0.12207086  0.48946295  0.02589580    -0.08000
C937        C  0.14636786  0.50160985  0.99980726    -0.02500
C938        C  0.13502195  0.01453649  0.47340349     0.04300
N939        N  0.15849071  0.02532160  0.44595766     0.66800
H940        H  0.09001552  0.02349789  0.45270567     0.15700
H941        H  0.13156961  0.48021860  0.04623250     0.15400
N942        N  0.06276805  0.47865497  0.05402100     0.74500
O943        O  0.16452318  0.99999552  0.43268743    -0.38900
O944        O  0.16480948  0.55373184  0.43072015    -0.38900
O945        O  0.06401081  0.95352900  0.07236340    -0.39600
O946        O  0.04271417  0.49481615  0.06137238    -0.39700
C947        C  0.35479074  0.47396314  0.47938162    -0.11900
C948        C  0.34884176  0.49502467  0.00275679     0.05100
C949        C  0.37925522  0.01586888  0.02469934    -0.07200
C950        C  0.41460731  0.01489570  0.02275899    -0.08000
C951        C  0.42130198  0.49532088  0.99809299    -0.02500
C952        C  0.39101493  0.47443737  0.47619408     0.04300
N953        N  0.39600596  0.45431746  0.45028048     0.66800
H954        H  0.33136882  0.45847049  0.46260665     0.15700
H955        H  0.43707339  0.02973389  0.04034341     0.15400
N956        N  0.37399478  0.03705890  0.04927700     0.74500
O957        O  0.36595000  0.42574347  0.43772639    -0.38900
O958        O  0.42984541  0.46622285  0.43855115    -0.38900
O959        O  0.35128484  0.01810580  0.07137335    -0.39600
O960        O  0.39610413  0.07430214  0.05103116    -0.39700
C961        C  0.02139912  0.60593436  0.22184432    -0.11900
C962        C  0.00433408  0.57673843  0.24488595     0.05100
C963        C  0.48884253  0.58477937  0.27367041    -0.07200
C964        C  0.48830867  0.62071485  0.27556089    -0.08000
C965        C  0.00596947  0.64986086  0.25036412    -0.02500
C966        C  0.02290064  0.64240360  0.22461033     0.04300
N967        N  0.04026300  0.67103128  0.20042646     0.66800
H968        H  0.03296446  0.60006530  0.20118020     0.15700
H969        H  0.47623749  0.62705106  0.29577199     0.15400
N970        N  0.47515494  0.55781509  0.29952523     0.74500
O971        O  0.07758432  0.68986267  0.19702511    -0.38900
O972        O  0.01827005  0.67325296  0.18000164    -0.38900
O973        O  0.48943957  0.53546670  0.30495140    -0.39600
O974        O  0.45137211  0.55886319  0.31873742    -0.39700
C975        C  0.01628608  0.91839970  0.26440248    -0.11900
C976        C  0.99946217  0.92480948  0.23778644     0.05100
C977        C  0.47960216  0.89305941  0.21742429    -0.07200
C978        C  0.47806263  0.85670129  0.22334811    -0.08000
C979        C  0.99792237  0.85206586  0.24755742    -0.02500
C980        C  0.01642162  0.88285395  0.26905596     0.04300
N981        N  0.03423986  0.87785771  0.29625283     0.66800
H982        H  0.02909049  0.94112603  0.28192939     0.15700
H983        H  0.46381731  0.83271068  0.20689727     0.15400
N984        N  0.46193356  0.89725496  0.18959278     0.74500
O985        O  0.07165911  0.89618400  0.29902559    -0.38900
O986        O  0.01262853  0.85878539  0.31881334    -0.38900
O987        O  0.47866715  0.92938721  0.17462426    -0.39600
O988        O  0.43239978  0.86735480  0.17779164    -0.39700
C989        C  0.46554481  0.73404290  0.39602635    -0.11900
C990        C  0.00351596  0.75337081  0.40985168     0.05100
C991        C  0.03916178  0.77288015  0.39263565    -0.07200
C992        C  0.03760700  0.77143107  0.36054844    -0.08000
C993        C  0.00110410  0.75116225  0.34479085    -0.02500
C994        C  0.46393441  0.73283870  0.36395612     0.04300
N995        N  0.42571073  0.71286124  0.34947081     0.66800
H996        H  0.43772087  0.71974133  0.40861654     0.15700
H997        H  0.06537784  0.78679106  0.34794904     0.15400
N998        N  0.07721895  0.79492882  0.40717870     0.74500
O999        O  0.41040691  0.67665656  0.34238347    -0.38900
O1000       O  0.40486714  0.72945222  0.34809673    -0.38900
O1001       O  0.10132986  0.78205914  0.40654058    -0.39600
O1002       O  0.08879134  0.82963989  0.41679005    -0.39700
C1003       C  0.03704283  0.76515566  0.11044879    -0.11900
C1004       C  0.00048835  0.74932608  0.09480068     0.05100
C1005       C  0.46401444  0.73167581  0.11395241    -0.07200
C1006       C  0.46561693  0.73217482  0.14601901    -0.08000
C1007       C  0.00333099  0.75057203  0.15984185    -0.02500
C1008       C  0.03882748  0.76604148  0.14251982     0.04300
N1009       N  0.07700847  0.78252585  0.15692922     0.66800
H1010       H  0.06472200  0.77709703  0.09778662     0.15700
H1011       H  0.43779405  0.71885750  0.15860074     0.15400
N1012       N  0.42580931  0.71364767  0.09944757     0.74500
O1013       O  0.09335273  0.76159799  0.15979913    -0.38900
O1014       O  0.09727724  0.81953640  0.16136411    -0.38900
O1015       O  0.40529692  0.67626901  0.09755387    -0.39600
O1016       O  0.41013802  0.73448722  0.09295974    -0.39700
C1017       C  0.51261223  0.59713600  0.02262500    -0.11900
C1018       C  0.99559814  0.57237183  0.99447191     0.05100
C1019       C  0.97719275  0.58396365  0.47217193    -0.07200
C1020       C  0.97582716  0.61921707  0.97576485    -0.08000
C1021       C  0.49455974  0.64434427  0.00291317    -0.02500
C1022       C  0.51321129  0.63321970  0.02541716     0.04300
N1023       N  0.53197445  0.65778114  0.05161185     0.66800
H1024       H  0.52533028  0.58802028  0.04092722     0.15700
H1025       H  0.96191021  0.62831371  0.95836159     0.15400
N1026       N  0.95918904  0.56053044  0.44521415     0.74500
O1027       O  0.51238378  0.66551986  0.57024972    -0.38900
O1028       O  0.56791823  0.66897357  0.05768224    -0.38900
O1029       O  0.92836092  0.55875833  0.43377946    -0.39600
O1030       O  0.97641612  0.54601549  0.93008940    -0.39700
C1031       C  0.01979579  0.87977277  0.47560992    -0.11900
C1032       C  0.50690277  0.85632201  0.00448843     0.05100
C1033       C  0.49252202  0.86800394  0.02961716    -0.07200
C1034       C  0.49019897  0.90269668  0.02751029    -0.08000
C1035       C  0.00172505  0.92567607  0.99820994    -0.02500
C1036       C  0.01647576  0.91405417  0.47274722     0.04300
N1037       N  0.02661117  0.93533595  0.44389110     0.66800
H1038       H  0.03016433  0.86990322  0.45630228     0.15700
H1039       H  0.47966669  0.91192400  0.04709183     0.15400
N1040       N  0.48091526  0.84525433  0.05753856     0.74500
O1041       O  0.05045781  0.93271385  0.42567096    -0.38900
O1042       O  0.00919147  0.95377784  0.43512692    -0.38900
O1043       O  0.50469007  0.83678962  0.07090841    -0.39600
O1044       O  0.44802518  0.83593665  0.07000742    -0.39700
O1045       O  0.46692732  0.73343816  0.54773440    -0.74100
O1046       O  0.46904274  0.73752972  0.96002008    -0.74100
O1047       O  0.46461997  0.68461349  0.50262342    -0.74200
O1048       O  0.47102682  0.78609364  0.00506262    -0.74200
O1049       O  0.03832979  0.81689166  0.50194356    -0.74200
O1050       O  0.03134545  0.71478309  0.00335285    -0.74100
O1051       O  0.03504936  0.76549064  0.95881902    -0.74100
O1052       O  0.03460409  0.76614042  0.54649354    -0.74200
Ni1053     Ni  0.46526976  0.73416622  0.50387181     1.25400
Ni1054     Ni  0.03685756  0.76663725  0.00267222     1.25400
C1055       C  0.00120774  0.74983595  0.56069576     0.88100
C1056       C  0.00230219  0.75193785  0.94392472     0.88000
C1057       C  0.49684035  0.68316313  0.50386852     0.88000
C1058       C  0.50457644  0.81751382  0.50448114     0.88200
O1059       O  0.46986599  0.68468786  0.75554190    -0.74100
O1060       O  0.46604669  0.78124068  0.75183164    -0.74100
O1061       O  0.46891314  0.73182719  0.71007281    -0.74200
O1062       O  0.46746842  0.73433001  0.79769827    -0.74200
O1063       O  0.03396239  0.76723950  0.79652503    -0.74200
O1064       O  0.03589735  0.76916191  0.70883814    -0.74100
O1065       O  0.03295333  0.81656645  0.75285649    -0.74100
O1066       O  0.03684245  0.71989436  0.75213763    -0.74200
Ni1067     Ni  0.46570164  0.73177774  0.75385092     1.25400
Ni1068     Ni  0.03730196  0.76948957  0.75271223     1.25400
C1069       C  0.00418604  0.68652570  0.75228845     0.88100
C1070       C  0.99914748  0.81480730  0.75067389     0.88000
C1071       C  0.00316022  0.75071708  0.69386648     0.88000
C1072       C  0.00051183  0.75054507  0.81066636     0.88200
C1073       C  0.46217527  0.96129146  0.49973032     0.02600
C1074       C  0.99968948  0.96313267  0.49729153     0.02600
C1075       C  0.03522218  0.50008952  0.49767661     0.02600
C1076       C  0.03376764  0.53554173  0.49501191     0.02600
C1077       C  0.99659225  0.53420412  0.49374566     0.02600
C1078       C  0.46078834  0.49697305  0.49742980     0.02600
C1079       C  0.03791436  0.53650644  0.73687589     0.02600
C1080       C  0.03703530  0.49964589  0.73477437     0.02600
C1081       C  0.00013781  0.96351392  0.73492682     0.02600
C1082       C  0.46370228  0.96443087  0.73726967     0.02600
C1083       C  0.46479221  0.50169965  0.73958816     0.02600
C1084       C  0.00200425  0.53738206  0.73911973     0.02600
O1085       O  0.23085621  0.96705640  0.54665234    -0.74100
O1086       O  0.23056350  0.96473718  0.95863774    -0.74100
O1087       O  0.27857404  0.96391312  0.50290500    -0.74200
O1088       O  0.18206489  0.96692050  0.00230947    -0.74200
O1089       O  0.21655354  0.53306150  0.49985670    -0.74200
O1090       O  0.31374666  0.53047440  0.00314656    -0.74100
O1091       O  0.26623112  0.53134417  0.95775311    -0.74100
O1092       O  0.26461696  0.53318996  0.54528444    -0.74200
Ni1093     Ni  0.22917763  0.96337695  0.50268505     1.25400
Ni1094     Ni  0.26661822  0.53461842  0.00150836     1.25400
C1095       C  0.24814592  0.50058446  0.56050610     0.88100
C1096       C  0.24854385  0.49804406  0.94361594     0.88000
C1097       C  0.31219170  0.49665108  0.50318129     0.88000
C1098       C  0.18344358  0.50018999  0.50068966     0.88200
O1099       O  0.23474417  0.96784302  0.79652292    -0.74100
O1100       O  0.23595649  0.96724546  0.70867152    -0.74100
O1101       O  0.28604048  0.97016292  0.75359953    -0.74200
O1102       O  0.18484249  0.96477587  0.75129330    -0.74200
O1103       O  0.21566111  0.53172623  0.75229191    -0.74200
O1104       O  0.31664630  0.53667968  0.75120116    -0.74100
O1105       O  0.26503626  0.53365927  0.70793752    -0.74100
O1106       O  0.26672066  0.53450057  0.79580746    -0.74200
Ni1107     Ni  0.23434834  0.96513414  0.75260956     1.25400
Ni1108     Ni  0.26717546  0.53652484  0.75185791     1.25400
C1109       C  0.25051692  0.50156455  0.81064373     0.88100
C1110       C  0.24971654  0.50039968  0.69370668     0.88000
C1111       C  0.31791719  0.00412623  0.75225321     0.88000
C1112       C  0.18367998  0.99711844  0.75123853     0.88200
O1113       O  0.18079291  0.71884841  0.50112361    -0.74100
O1114       O  0.28250459  0.81410035  0.00443364    -0.74100
O1115       O  0.23446215  0.76806054  0.95858045    -0.74200
O1116       O  0.22977069  0.76488435  0.54669018    -0.74200
O1117       O  0.26240598  0.73127493  0.54671304    -0.74200
O1118       O  0.26347107  0.73098458  0.95898677    -0.74100
O1119       O  0.31260467  0.77923749  0.50249456    -0.74100
O1120       O  0.21247837  0.68282984  0.00262335    -0.74200
Ni1121     Ni  0.23017382  0.76790881  0.50274607     1.25400
Ni1122     Ni  0.26324006  0.72996173  0.50286692     1.25400
C1123       C  0.17980642  0.68546315  0.50169528     0.88100
C1124       C  0.31359496  0.81265890  0.50338764     0.88000
C1125       C  0.24953840  0.74997999  0.94424084     0.88000
C1126       C  0.24598910  0.74788862  0.56125673     0.88200
O1127       O  0.18607360  0.71329141  0.75331433    -0.74100
O1128       O  0.28186456  0.81434030  0.75195985    -0.74100
O1129       O  0.23337892  0.76336930  0.70893292    -0.74200
O1130       O  0.23463104  0.76421325  0.79664043    -0.74200
O1131       O  0.26870290  0.73201827  0.79675690    -0.74200
O1132       O  0.27062487  0.73454511  0.70891258    -0.74100
O1133       O  0.31776942  0.78392299  0.75377896    -0.74100
O1134       O  0.22181079  0.68268961  0.75155837    -0.74200
Ni1135     Ni  0.23271177  0.76488234  0.75278438     1.25400
Ni1136     Ni  0.27104457  0.73221297  0.75282996     1.25400
C1137       C  0.18823944  0.68152661  0.75186511     0.88100
C1138       C  0.31553274  0.81570800  0.75253035     0.88000
C1139       C  0.25202904  0.74908797  0.69435997     0.88000
C1140       C  0.25151084  0.74790440  0.81123248     0.88200
C1141       C  0.25746576  0.72260068  0.89491446    -0.11900
C1142       C  0.25073863  0.75049736  0.91020476     0.05100
C1143       C  0.24477493  0.77773876  0.89259396    -0.07200
C1144       C  0.24473303  0.77599356  0.86051439    -0.10400
C1145       C  0.25133000  0.74802201  0.84524599    -0.02500
C1146       C  0.25788499  0.72116819  0.86283573     0.04300
N1147       N  0.26375808  0.69140403  0.84860684     0.66800
H1148       H  0.26187725  0.70121729  0.90788400     0.15700
H1149       H  0.24035643  0.79736605  0.84749374     0.15400
N1150       N  0.24007296  0.80825451  0.90679048     0.74500
O1151       O  0.29850282  0.69672296  0.84603626    -0.38900
O1152       O  0.23415496  0.65764884  0.84297865    -0.38900
O1153       O  0.27031384  0.83954132  0.91614756    -0.39600
O1154       O  0.20648430  0.80606418  0.90666802    -0.39700
C1155       C  0.22346706  0.75618108  0.64508220    -0.11900
C1156       C  0.25132348  0.74901427  0.66029038     0.05100
C1157       C  0.27701373  0.74104729  0.64257708    -0.07200
C1158       C  0.27408289  0.74006760  0.61051422    -0.08000
C1159       C  0.24665299  0.74787098  0.59531069    -0.02500
C1160       C  0.22104522  0.75590904  0.61302109     0.04300
N1161       N  0.19186150  0.76315278  0.59899062     0.66800
H1162       H  0.20312451  0.76192723  0.65811386     0.15700
H1163       H  0.29436389  0.73427976  0.59743248     0.15400
N1164       N  0.30719492  0.73525989  0.65656883     0.74500
O1165       O  0.15572634  0.73615155  0.59909775    -0.38900
O1166       O  0.20087907  0.79828573  0.59213542    -0.38900
O1167       O  0.30569045  0.70216417  0.65419840    -0.39600
O1168       O  0.33800318  0.76462023  0.66753850    -0.39700
C1169       C  0.24778758  0.96813044  0.86051600    -0.11900
C1170       C  0.25027146  0.50151819  0.84468819     0.05100
C1171       C  0.25221540  0.53322686  0.86196510    -0.07200
C1172       C  0.25135940  0.53114014  0.89407779    -0.08000
C1173       C  0.24876994  0.49821196  0.90965549    -0.02500
C1174       C  0.24722433  0.96631952  0.89264513     0.04300
N1175       N  0.24683772  0.93319890  0.90744374     0.66800
H1176       H  0.24700371  0.94384135  0.84777884     0.15700
H1177       H  0.25249921  0.55551650  0.90694221     0.15400
N1178       N  0.25357439  0.56710695  0.84755227     0.74500
O1179       O  0.21481179  0.90028286  0.90902048    -0.38900
O1180       O  0.27931570  0.93513135  0.91463080    -0.38900
O1181       O  0.22630122  0.57494137  0.85305435    -0.39600
O1182       O  0.28593516  0.59389072  0.83621957    -0.39700
C1183       C  0.22283588  0.96634612  0.61089289    -0.11900
C1184       C  0.24859169  0.50148067  0.59459084     0.05100
C1185       C  0.27475307  0.53599226  0.61139012    -0.07200
C1186       C  0.27450384  0.53488397  0.64352276    -0.08000
C1187       C  0.24828438  0.50015388  0.65967524    -0.02500
C1188       C  0.22201372  0.96541295  0.64303311     0.04300
N1189       N  0.19331179  0.92965291  0.65812257     0.66800
H1190       H  0.20247996  0.93957492  0.59854555     0.15700
H1191       H  0.29529657  0.56146554  0.65588091     0.15400
N1192       N  0.30239376  0.57225598  0.59637037     0.74500
O1193       O  0.16403274  0.92857621  0.67162397    -0.38900
O1194       O  0.19389924  0.89780054  0.65408317    -0.38900
O1195       O  0.29195026  0.59737582  0.58966821    -0.39600
O1196       O  0.33884300  0.58259037  0.59571396    -0.39700
C1197       C  0.08623310  0.59441307  0.76811685    -0.11900
C1198       C  0.07684326  0.57436390  0.73984392     0.05100
C1199       C  0.10509298  0.58945571  0.71572554    -0.07200
C1200       C  0.14241713  0.62329957  0.72096528    -0.08000
C1201       C  0.15131055  0.64322319  0.74912761    -0.02500
C1202       C  0.12298356  0.62876338  0.77283053     0.04300
N1203       N  0.13161124  0.64809580  0.80203320     0.66800
H1204       H  0.06514626  0.58275744  0.78688541     0.15700
H1205       H  0.16391866  0.63547008  0.70244036     0.15400
N1206       N  0.09586155  0.57205818  0.68562303     0.74500
O1207       O  0.10910699  0.65986907  0.81274901    -0.38900
O1208       O  0.15888506  0.64921609  0.81865230    -0.38900
O1209       O  0.06179409  0.55999012  0.67410528    -0.39600
O1210       O  0.12313023  0.57355868  0.66889456    -0.39700
C1211       C  0.41974796  0.90170342  0.76606515    -0.11900
C1212       C  0.42473630  0.92623458  0.74055743     0.05100
C1213       C  0.39203757  0.91494901  0.72027491    -0.07200
C1214       C  0.35607611  0.87973711  0.72596085    -0.08000
C1215       C  0.35229177  0.85451509  0.75038695    -0.02500
C1216       C  0.38444726  0.86555440  0.77071310     0.04300
N1217       N  0.38150609  0.84094303  0.79645074     0.66800
H1218       H  0.44352491  0.91094695  0.78274468     0.15700
H1219       H  0.33137867  0.87085596  0.71016826     0.15400
N1220       N  0.39452318  0.93826355  0.69377841     0.74500
O1221       O  0.41070682  0.83667286  0.80372425    -0.38900
O1222       O  0.35101898  0.82596579  0.81340798    -0.38900
O1223       O  0.42410853  0.95134980  0.67607179    -0.39600
O1224       O  0.36471672  0.94106163  0.68564570    -0.39700
C1225       C  0.12268255  0.47921919  0.72163516    -0.11900
C1226       C  0.14526098  0.99544377  0.74829952     0.05100
C1227       C  0.13264525  0.01315520  0.77018504    -0.07200
C1228       C  0.09742633  0.01381434  0.76529505    -0.08000
C1229       C  0.07516472  0.49902641  0.73783053    -0.02500
C1230       C  0.08818989  0.48128363  0.71577821     0.04300
N1231       N  0.06760274  0.46608953  0.68723280     0.66800
H1232       H  0.13304305  0.46622767  0.70463885     0.15700
H1233       H  0.08677567  0.02531935  0.78325502     0.15400
N1234       N  0.15480625  0.02973519  0.79779956     0.74500
O1235       O  0.06536423  0.43529861  0.67563039    -0.38900
O1236       O  0.05736706  0.48665282  0.67125369    -0.38900
O1237       O  0.16683882  0.06560174  0.80437666    -0.39600
O1238       O  0.15828221  0.00745442  0.81725688    -0.39700
C1239       C  0.40223229  0.48460692  0.76754515    -0.11900
C1240       C  0.42719104  0.50333911  0.74218327     0.05100
C1241       C  0.41695899  0.02457070  0.72086783    -0.07200
C1242       C  0.38194771  0.02609073  0.72587844    -0.08000
C1243       C  0.35640142  0.50594018  0.75040853    -0.02500
C1244       C  0.36679894  0.48516650  0.77148776     0.04300
N1245       N  0.34214923  0.46544636  0.79746943     0.66800
H1246       H  0.41053680  0.46964335  0.78460242     0.15700
H1247       H  0.37321326  0.04146201  0.70951605     0.15400
N1248       N  0.44041293  0.04377264  0.69384740     0.74500
O1249       O  0.32530621  0.42809815  0.79985388    -0.38900
O1250       O  0.34010347  0.48556669  0.81933356    -0.38900
O1251       O  0.46177510  0.03165722  0.68150582    -0.39600
O1252       O  0.43801624  0.07174283  0.68102078    -0.39700
C1253       C  0.09331977  0.58602070  0.52323280    -0.11900
C1254       C  0.07164666  0.57437284  0.49568395     0.05100
C1255       C  0.08536125  0.60059480  0.96955682    -0.07200
C1256       C  0.12037527  0.63755220  0.97242024    -0.08000
C1257       C  0.14143644  0.64866376  0.50054786    -0.02500
C1258       C  0.12791813  0.62280128  0.52592838     0.04300
N1259       N  0.14848552  0.63430307  0.55470897     0.66800
H1260       H  0.08239236  0.56650085  0.54348727     0.15700
H1261       H  0.13168003  0.65743926  0.95271530     0.15400
N1262       N  0.06511698  0.58960879  0.94046516     0.74500
O1263       O  0.15030945  0.66199635  0.06915176    -0.38900
O1264       O  0.16137263  0.61337650  0.56691872    -0.38900
O1265       O  0.06505641  0.61583147  0.92322985    -0.39600
O1266       O  0.05159065  0.55437419  0.43086371    -0.39700
C1267       C  0.41631073  0.89377113  0.97973684    -0.11900
C1268       C  0.42498694  0.92184662  0.50264778     0.05100
C1269       C  0.39845654  0.91243962  0.52769668    -0.07200
C1270       C  0.36161805  0.87691954  0.52693692    -0.08000
C1271       C  0.35212769  0.84963229  0.50300344    -0.02500
C1272       C  0.38065166  0.85749084  0.97984588     0.04300
N1273       N  0.37216832  0.83033386  0.95496875     0.66800
H1274       H  0.43640179  0.90079507  0.96051166     0.15700
H1275       H  0.34070253  0.86975928  0.54564054     0.15400
N1276       N  0.40867319  0.93792427  0.55411816     0.74500
O1277       O  0.34132993  0.81928199  0.93879262    -0.38900
O1278       O  0.39625401  0.82043908  0.44677390    -0.38900
O1279       O  0.38163969  0.93748630  0.07061160    -0.39600
O1280       O  0.44433876  0.95767630  0.56319318    -0.39700
C1281       C  0.09910515  0.01460651  0.97357080    -0.11900
C1282       C  0.07432804  0.50187821  0.49985604     0.05100
C1283       C  0.08641169  0.48993873  0.52671711    -0.07200
C1284       C  0.12212230  0.48908097  0.52615070    -0.08000
C1285       C  0.14607811  0.50072841  0.49987713    -0.02500
C1286       C  0.13488951  0.01424197  0.97346151     0.04300
N1287       N  0.15831147  0.02506554  0.94598892     0.66800
H1288       H  0.08990163  0.02335290  0.95289274     0.15700
H1289       H  0.13178866  0.48005603  0.54651389     0.15400
N1290       N  0.06314086  0.47866361  0.55450983     0.74500
O1291       O  0.16445724  0.99980904  0.93272686    -0.38900
O1292       O  0.16699289  0.55683106  0.93193897    -0.38900
O1293       O  0.06393079  0.95386421  0.57223993    -0.39600
O1294       O  0.04394577  0.49558102  0.56226441    -0.39700
C1295       C  0.35447474  0.47388856  0.97928033    -0.11900
C1296       C  0.34915339  0.49518916  0.50278107     0.05100
C1297       C  0.37898867  0.01550058  0.52459283    -0.07200
C1298       C  0.41448060  0.01483449  0.52234664    -0.08000
C1299       C  0.42159628  0.49539431  0.49826246    -0.02500
C1300       C  0.39069808  0.47437560  0.97604370     0.04300
N1301       N  0.39565992  0.45425836  0.95011626     0.66800
H1302       H  0.33105527  0.45846341  0.96248832     0.15700
H1303       H  0.43697604  0.02952307  0.53993564     0.15400
N1304       N  0.37354272  0.03608450  0.54956918     0.74500
O1305       O  0.36559450  0.42564191  0.93760852    -0.38900
O1306       O  0.42948359  0.46617622  0.93835270    -0.38900
O1307       O  0.34781719  0.01675248  0.56991228    -0.39600
O1308       O  0.39772638  0.07265018  0.55343562    -0.39700
C1309       C  0.02085337  0.60561254  0.72131824    -0.11900
C1310       C  0.00372613  0.57630488  0.74427841     0.05100
C1311       C  0.48901315  0.58473969  0.77380421    -0.07200
C1312       C  0.48857635  0.62072215  0.77567629    -0.08000
C1313       C  0.00533918  0.64938773  0.74998828    -0.02500
C1314       C  0.02235302  0.64207422  0.72421110     0.04300
N1315       N  0.03988252  0.67088856  0.70016915     0.66800
H1316       H  0.03259014  0.59987238  0.70068050     0.15700
H1317       H  0.47661066  0.62714771  0.79590685     0.15400
N1318       N  0.47532538  0.55781546  0.79968464     0.74500
O1319       O  0.07727884  0.69046078  0.69740034    -0.38900
O1320       O  0.01813982  0.67267776  0.67930988    -0.38900
O1321       O  0.48952681  0.53539299  0.80509911    -0.39600
O1322       O  0.45162365  0.55896455  0.81892374    -0.39700
C1323       C  0.01652268  0.91828370  0.76439743    -0.11900
C1324       C  0.99965895  0.92473119  0.73782342     0.05100
C1325       C  0.48004921  0.89306470  0.71746007    -0.07200
C1326       C  0.47859189  0.85674172  0.72334117    -0.08000
C1327       C  0.99778405  0.85183110  0.74761373    -0.02500
C1328       C  0.01649082  0.88265732  0.76906096     0.04300
N1329       N  0.03434559  0.87762283  0.79622313     0.66800
H1330       H  0.02943380  0.94101898  0.78190990     0.15700
H1331       H  0.46435857  0.83275882  0.70688262     0.15400
N1332       N  0.46231583  0.89724554  0.68965865     0.74500
O1333       O  0.07175384  0.89625521  0.79910484    -0.38900
O1334       O  0.01272472  0.85810867  0.81864902    -0.38900
O1335       O  0.47894746  0.92940952  0.67472762    -0.39600
O1336       O  0.43281759  0.86732074  0.67784843    -0.39700
C1337       C  0.46616998  0.73523649  0.89601453    -0.11900
C1338       C  0.00255473  0.75267364  0.90984653     0.05100
C1339       C  0.03826100  0.77140519  0.89264979    -0.07200
C1340       C  0.03672802  0.76997843  0.86056859    -0.08000
C1341       C  0.00021101  0.75050521  0.84476688    -0.02500
C1342       C  0.46455228  0.73407583  0.86394833     0.04300
N1343       N  0.42631216  0.71523521  0.84946019     0.66800
H1344       H  0.43833596  0.72177653  0.90858574     0.15700
H1345       H  0.06456236  0.78471307  0.84800797     0.15400
N1346       N  0.07639869  0.79260382  0.90720102     0.74500
O1347       O  0.40979593  0.67888815  0.84251227    -0.38900
O1348       O  0.40659213  0.73300949  0.84804243    -0.38900
O1349       O  0.09966366  0.77871198  0.90666062    -0.39600
O1350       O  0.08897851  0.82758484  0.91661897    -0.39700
C1351       C  0.03753188  0.76611317  0.61052944    -0.11900
C1352       C  0.00101144  0.74960829  0.59476610     0.05100
C1353       C  0.46407511  0.73155653  0.61401292    -0.07200
C1354       C  0.46577482  0.73207478  0.64607593    -0.08000
C1355       C  0.00347310  0.75053326  0.65981375    -0.02500
C1356       C  0.03912255  0.76680524  0.64260776     0.04300
N1357       N  0.07727127  0.78393689  0.65714501     0.66800
H1358       H  0.06532546  0.77869959  0.59795502     0.15700
H1359       H  0.43798980  0.71878083  0.65870688     0.15400
N1360       N  0.42582567  0.71349469  0.59957969     0.74500
O1361       O  0.09360359  0.76315639  0.66113100    -0.38900
O1362       O  0.09744613  0.82110337  0.66079544    -0.38900
O1363       O  0.40548815  0.67612772  0.59745619    -0.39600
O1364       O  0.40995566  0.73423104  0.59337988    -0.39700
C1365       C  0.51307377  0.59738043  0.52264267    -0.11900
C1366       C  0.99586817  0.57244926  0.49488725     0.05100
C1367       C  0.97667109  0.58377682  0.97189737    -0.07200
C1368       C  0.97667974  0.61961065  0.47583130    -0.08000
C1369       C  0.49472374  0.64438614  0.50294446    -0.02500
C1370       C  0.51360993  0.63344332  0.52538345     0.04300
N1371       N  0.53256869  0.65817625  0.55145908     0.66800
H1372       H  0.52594336  0.58839595  0.54092043     0.15700
H1373       H  0.96291882  0.62875132  0.45833299     0.15400
N1374       N  0.95875836  0.56044448  0.94487596     0.74500
O1375       O  0.51168136  0.66515523  0.07027088    -0.38900
O1376       O  0.56861843  0.66958067  0.55728870    -0.38900
O1377       O  0.92788228  0.55859107  0.93346368    -0.39600
O1378       O  0.97676791  0.54598940  0.43046481    -0.39700
C1379       C  0.01926561  0.87934876  0.97566864    -0.11900
C1380       C  0.50619993  0.85600824  0.50424690     0.05100
C1381       C  0.49183932  0.86781868  0.52931078    -0.07200
C1382       C  0.48959125  0.90254848  0.52709188    -0.08000
C1383       C  0.00182723  0.92587856  0.49801705    -0.02500
C1384       C  0.01617085  0.91375430  0.97287638     0.04300
N1385       N  0.02630561  0.93505560  0.94402846     0.66800
H1386       H  0.02947685  0.86939307  0.95631584     0.15700
H1387       H  0.47910550  0.91188999  0.54663341     0.15400
N1388       N  0.48022809  0.84519653  0.55729361     0.74500
O1389       O  0.05003118  0.93232118  0.92574836    -0.38900
O1390       O  0.00898784  0.95362285  0.93532888    -0.38900
O1391       O  0.50396296  0.83670761  0.57070143    -0.39600
O1392       O  0.44739341  0.83604657  0.56978438    -0.39700
O1393       O  0.96765067  0.23358809  0.04589098    -0.74100
O1394       O  0.96946893  0.23768815  0.45830268    -0.74100
O1395       O  0.96524697  0.18484511  0.00065839    -0.74200
O1396       O  0.97154220  0.28613212  0.50346872    -0.74200
O1397       O  0.53695534  0.31626378  0.00392522    -0.74200
O1398       O  0.53107970  0.21479597  0.50531556    -0.74100
O1399       O  0.53505835  0.26570915  0.46083926    -0.74100
O1400       O  0.53313330  0.26550077  0.04844637    -0.74200
Ni1401     Ni  0.96608458  0.23447618  0.00203641     1.25400
Ni1402     Ni  0.53667029  0.26667210  0.50470458     1.25400
C1403       C  0.49975478  0.24920921  0.06267002     0.88100
C1404       C  0.50235810  0.25218140  0.44588489     0.88000
C1405       C  0.99738892  0.18325383  0.00188435     0.88000
C1406       C  0.00557717  0.31782884  0.00282137     0.88200
O1407       O  0.97023337  0.18485899  0.25363541    -0.74100
O1408       O  0.96607282  0.28122980  0.25013286    -0.74100
O1409       O  0.96919314  0.23204772  0.20825075    -0.74200
O1410       O  0.96761499  0.23426255  0.29590631    -0.74200
O1411       O  0.53382023  0.26766522  0.29839099    -0.74200
O1412       O  0.53518476  0.26890764  0.21068151    -0.74100
O1413       O  0.53253477  0.31665926  0.25453816    -0.74100
O1414       O  0.53643302  0.21997069  0.25416087    -0.74200
Ni1415     Ni  0.96590495  0.23185159  0.25204050     1.25400
Ni1416     Ni  0.53688273  0.26957348  0.25455609     1.25400
C1417       C  0.50379597  0.18658135  0.25446605     0.88100
C1418       C  0.49871925  0.31489204  0.25240353     0.88000
C1419       C  0.50235764  0.25034597  0.19582921     0.88000
C1420       C  0.50043584  0.25106656  0.31262415     0.88200
C1421       C  0.96246705  0.46120268  0.99736008     0.02600
C1422       C  0.49951759  0.46310670  0.99987498     0.02600
C1423       C  0.53526294  0.00044081  0.99960350     0.02600
C1424       C  0.53368451  0.03584954  0.99715415     0.02600
C1425       C  0.49641869  0.03434602  0.99613904     0.02600
C1426       C  0.96057958  0.99671219  0.99450037     0.02600
C1427       C  0.53783536  0.03662605  0.23838445     0.02600
C1428       C  0.53679649  0.99971275  0.23570815     0.02600
C1429       C  0.49982992  0.46366946  0.23594997     0.02600
C1430       C  0.96348630  0.46460110  0.23597952     0.02600
C1431       C  0.96486289  0.00171807  0.23783290     0.02600
C1432       C  0.50200289  0.03759420  0.24112045     0.02600
O1433       O  0.73257406  0.46715500  0.04443099    -0.74100
O1434       O  0.72920275  0.46519760  0.45632205    -0.74100
O1435       O  0.77848761  0.46380952  0.99918631    -0.74200
O1436       O  0.68231537  0.46734735  0.50132304    -0.74200
O1437       O  0.71639546  0.03299961  0.99908885    -0.74200
O1438       O  0.81348172  0.03066445  0.49960783    -0.74100
O1439       O  0.76429735  0.03105340  0.45540276    -0.74100
O1440       O  0.76576883  0.03282077  0.04321416    -0.74200
Ni1441     Ni  0.72905267  0.46328354  0.00052610     1.25400
Ni1442     Ni  0.76613334  0.03448381  0.49915846     1.25400
C1443       C  0.74997865  0.00014935  0.05835538     0.88100
C1444       C  0.74594576  0.99769384  0.44139205     0.88000
C1445       C  0.81179419  0.99623918  0.99934526     0.88000
C1446       C  0.68327170  0.00020612  0.00049316     0.88200
O1447       O  0.73448798  0.46893088  0.29403874    -0.74100
O1448       O  0.73726443  0.46823092  0.20638765    -0.74100
O1449       O  0.78648224  0.47117011  0.25185641    -0.74200
O1450       O  0.68543342  0.46592672  0.24836031    -0.74200
O1451       O  0.71570568  0.03140719  0.24947887    -0.74200
O1452       O  0.81670740  0.03648310  0.24958869    -0.74100
O1453       O  0.76579509  0.03331807  0.20570615    -0.74100
O1454       O  0.76601872  0.03428757  0.29358050    -0.74200
Ni1455     Ni  0.73486580  0.46620459  0.25023558     1.25400
Ni1456     Ni  0.76722415  0.03627306  0.24962377     1.25400
C1457       C  0.74929275  0.00131939  0.30839100     0.88100
C1458       C  0.75107223  0.00003188  0.19156659     0.88000
C1459       C  0.81837954  0.50511072  0.25055908     0.88000
C1460       C  0.68431659  0.49829008  0.24840387     0.88200
O1461       O  0.68185508  0.21878656  0.00215160    -0.74100
O1462       O  0.78251871  0.31423361  0.50368033    -0.74100
O1463       O  0.73258932  0.26719167  0.45898771    -0.74200
O1464       O  0.73230553  0.26567412  0.04682582    -0.74200
O1465       O  0.76444324  0.23157154  0.04682791    -0.74200
O1466       O  0.76137965  0.22989200  0.45909204    -0.74100
O1467       O  0.81367422  0.27844642  0.00176719    -0.74100
O1468       O  0.71188838  0.18300549  0.50384027    -0.74200
Ni1469     Ni  0.73144080  0.26760656  0.00283569     1.25400
Ni1470     Ni  0.76414043  0.22928179  0.00298656     1.25400
C1471       C  0.68056310  0.18527578  0.00290132     0.88100
C1472       C  0.81479929  0.31195446  0.00238740     0.88000
C1473       C  0.74677892  0.24838337  0.44450503     0.88000
C1474       C  0.74898130  0.24909289  0.06138247     0.88200
O1475       O  0.68618985  0.21320515  0.25375379    -0.74100
O1476       O  0.78162943  0.31450994  0.25130636    -0.74100
O1477       O  0.73299828  0.26246226  0.20883092    -0.74200
O1478       O  0.73490221  0.26510843  0.29658004    -0.74200
O1479       O  0.76956749  0.23355816  0.29716709    -0.74200
O1480       O  0.77034651  0.23370070  0.20925728    -0.74100
O1481       O  0.81785908  0.28445013  0.25345135    -0.74100
O1482       O  0.72217918  0.18284004  0.25268200    -0.74200
Ni1483     Ni  0.73265355  0.26489325  0.25267618     1.25400
Ni1484     Ni  0.77131518  0.23256812  0.25323590     1.25400
C1485       C  0.68851842  0.18150871  0.25278533     0.88100
C1486       C  0.81539701  0.31609909  0.25186518     0.88000
C1487       C  0.75137125  0.24768485  0.19450868     0.88000
C1488       C  0.75234491  0.24956197  0.31144384     0.88200
C1489       C  0.77419429  0.23999350  0.39545371    -0.11900
C1490       C  0.74723952  0.24836627  0.41048428     0.05100
C1491       C  0.72229911  0.25747747  0.39268892    -0.07200
C1492       C  0.72512491  0.25846069  0.36060710    -0.10400
C1493       C  0.75186435  0.24973968  0.34553119    -0.02500
C1494       C  0.77678267  0.24063088  0.36341966     0.04300
N1495       N  0.80561492  0.23288336  0.34962679     0.66800
H1496       H  0.79401965  0.23347162  0.40864425     0.15700
H1497       H  0.70530803  0.26499211  0.34742663     0.15400
N1498       N  0.69281801  0.26418655  0.40665211     0.74500
O1499       O  0.84086411  0.26100824  0.34601046    -0.38900
O1500       O  0.79809773  0.19746411  0.34686547    -0.38900
O1501       O  0.69388463  0.29691131  0.40265191    -0.39600
O1502       O  0.66308264  0.23583565  0.41972900    -0.39700
C1503       C  0.74276768  0.27430708  0.14484182    -0.11900
C1504       C  0.75083326  0.24739199  0.16047956     0.05100
C1505       C  0.75884067  0.22147096  0.14324580    -0.07200
C1506       C  0.75845482  0.22283095  0.11111743    -0.08000
C1507       C  0.75032552  0.24974483  0.09545274    -0.02500
C1508       C  0.74303370  0.27615531  0.11273435     0.04300
N1509       N  0.73764486  0.30626163  0.09820111     0.66800
H1510       H  0.73742895  0.29506742  0.15761467     0.15700
H1511       H  0.76390186  0.20210597  0.09840183     0.15400
N1512       N  0.76612608  0.19268164  0.15790056     0.74500
O1513       O  0.70559252  0.30666774  0.10196306    -0.38900
O1514       O  0.76676910  0.33536984  0.08520779    -0.38900
O1515       O  0.73720762  0.16000130  0.16681090    -0.39600
O1516       O  0.80092684  0.19778526  0.15845302    -0.39700
C1517       C  0.74221071  0.46720006  0.35803485    -0.11900
C1518       C  0.74796747  0.00107120  0.34242338     0.05100
C1519       C  0.75377834  0.03436639  0.35964581    -0.07200
C1520       C  0.75235894  0.03223955  0.39174918    -0.08000
C1521       C  0.74530545  0.99759419  0.40739458    -0.02500
C1522       C  0.74110040  0.46513555  0.39012347     0.04300
N1523       N  0.73581199  0.42978465  0.40474798     0.66800
H1524       H  0.73844315  0.44162000  0.34532098     0.15700
H1525       H  0.75689921  0.05807428  0.40451547     0.15400
N1526       N  0.76028135  0.07028245  0.34513885     0.74500
O1527       O  0.70170700  0.39911291  0.40557161    -0.38900
O1528       O  0.76584974  0.42762408  0.41317932    -0.38900
O1529       O  0.73465066  0.08099531  0.34812299    -0.39600
O1530       O  0.79472832  0.09521446  0.33578618    -0.39700
C1531       C  0.72527762  0.46675606  0.10860832    -0.11900
C1532       C  0.75132208  0.00082186  0.09243026     0.05100
C1533       C  0.77480977  0.03614917  0.10925691    -0.07200
C1534       C  0.77406508  0.03514456  0.14138170    -0.08000
C1535       C  0.75030065  0.99955935  0.15751156    -0.02500
C1536       C  0.72428865  0.46599451  0.14072669     0.04300
N1537       N  0.69539097  0.43033444  0.15583921     0.66800
H1538       H  0.70478049  0.43998588  0.09632171     0.15700
H1539       H  0.79265690  0.06250503  0.15373703     0.15400
N1540       N  0.80009383  0.07326275  0.09427896     0.74500
O1541       O  0.66659264  0.42970273  0.16978710    -0.38900
O1542       O  0.69536215  0.39821653  0.15150624    -0.38900
O1543       O  0.79004067  0.09953086  0.09326491    -0.39600
O1544       O  0.83515301  0.08235666  0.08710677    -0.39700
C1545       C  0.58685607  0.09417202  0.26969157    -0.11900
C1546       C  0.57688065  0.07442653  0.24126034     0.05100
C1547       C  0.60472913  0.08972157  0.21686989    -0.07200
C1548       C  0.64215482  0.12351168  0.22192470    -0.08000
C1549       C  0.65164492  0.14310336  0.25023837    -0.02500
C1550       C  0.62381747  0.12836972  0.27427205     0.04300
N1551       N  0.63318347  0.14732887  0.30363512     0.66800
H1552       H  0.56608944  0.08238152  0.28866154     0.15700
H1553       H  0.66327617  0.13588931  0.20317045     0.15400
N1554       N  0.59501195  0.07255984  0.18669750     0.74500
O1555       O  0.61241058  0.16117679  0.31430059    -0.38900
O1556       O  0.65977482  0.14687070  0.32015557    -0.38900
O1557       O  0.56080327  0.06067943  0.17552918    -0.39600
O1558       O  0.62199052  0.07408197  0.16959854    -0.39700
C1559       C  0.91935400  0.40243791  0.26516244    -0.11900
C1560       C  0.92447680  0.42653218  0.23935498     0.05100
C1561       C  0.89185258  0.41501571  0.21894625    -0.07200
C1562       C  0.85590009  0.37978429  0.22467569    -0.08000
C1563       C  0.85202877  0.35497483  0.24942848    -0.02500
C1564       C  0.88398895  0.36648766  0.26999414     0.04300
N1565       N  0.88048876  0.34276151  0.29642102     0.66800
H1566       H  0.94299565  0.41196016  0.28199976     0.15700
H1567       H  0.83128381  0.37062901  0.20875811     0.15400
N1568       N  0.89439295  0.43814116  0.19232026     0.74500
O1569       O  0.90891301  0.33738000  0.30400098    -0.38900
O1570       O  0.85074947  0.33058328  0.31396463    -0.38900
O1571       O  0.92400304  0.45108345  0.17465147    -0.39600
O1572       O  0.86463038  0.44095674  0.18408460    -0.39700
C1573       C  0.62185006  0.97901440  0.21994668    -0.11900
C1574       C  0.64585398  0.49661736  0.24623519     0.05100
C1575       C  0.63392030  0.51440460  0.26859079    -0.07200
C1576       C  0.59826397  0.51449856  0.26474326    -0.08000
C1577       C  0.57496531  0.99895167  0.23772100    -0.02500
C1578       C  0.58722792  0.98122321  0.21504981     0.04300
N1579       N  0.56580111  0.96631955  0.18678195     0.66800
H1580       H  0.63163887  0.96599799  0.20248611     0.15700
H1581       H  0.58820036  0.52606800  0.28307081     0.15400
N1582       N  0.65732854  0.53180215  0.29557694     0.74500
O1583       O  0.56317045  0.93562675  0.17465015    -0.38900
O1584       O  0.55520814  0.98709700  0.17146090    -0.38900
O1585       O  0.66890752  0.56760836  0.30203974    -0.39600
O1586       O  0.66301597  0.51040789  0.31450238    -0.39700
C1587       C  0.90240514  0.98450206  0.26597026    -0.11900
C1588       C  0.92724079  0.00326220  0.24055077     0.05100
C1589       C  0.91712414  0.52496875  0.21920301    -0.07200
C1590       C  0.88226726  0.52673984  0.22421388    -0.08000
C1591       C  0.85649196  0.00581225  0.24906470    -0.02500
C1592       C  0.86693833  0.98495023  0.27000611     0.04300
N1593       N  0.84227115  0.96495327  0.29590364     0.66800
H1594       H  0.91079071  0.96954810  0.28297348     0.15700
H1595       H  0.87357170  0.54206535  0.20777500     0.15400
N1596       N  0.94054120  0.54392259  0.19211875     0.74500
O1597       O  0.82412015  0.92747726  0.29739022    -0.38900
O1598       O  0.84192939  0.98475788  0.31867813    -0.38900
O1599       O  0.96165455  0.53150532  0.17978590    -0.39600
O1600       O  0.93836542  0.57198773  0.17924002    -0.39700
C1601       C  0.59341104  0.08645440  0.02526244    -0.11900
C1602       C  0.57155421  0.07476567  0.99773303     0.05100
C1603       C  0.58497317  0.10065959  0.47158883    -0.07200
C1604       C  0.61982670  0.13773250  0.47441367    -0.08000
C1605       C  0.64192189  0.14870263  0.00214005    -0.02500
C1606       C  0.62824620  0.12324081  0.02773427     0.04300
N1607       N  0.64877960  0.13509698  0.05656175     0.66800
H1608       H  0.58258315  0.06730367  0.04533779     0.15700
H1609       H  0.63107738  0.15750637  0.45464417     0.15400
N1610       N  0.56464805  0.08961808  0.44252936     0.74500
O1611       O  0.65378309  0.16644943  0.56911233    -0.38900
O1612       O  0.65878754  0.11274524  0.07031057    -0.38900
O1613       O  0.56435498  0.11578079  0.42536210    -0.39600
O1614       O  0.55113406  0.05493386  0.93276602    -0.39700
C1615       C  0.91613060  0.39325711  0.47782736    -0.11900
C1616       C  0.92540222  0.42175599  0.00048063     0.05100
C1617       C  0.89898209  0.41255501  0.02557323    -0.07200
C1618       C  0.86247682  0.37671236  0.02523342    -0.08000
C1619       C  0.85326859  0.34892772  0.00173130    -0.02500
C1620       C  0.88054789  0.35690022  0.47835297     0.04300
N1621       N  0.87209829  0.32909458  0.45399984     0.66800
H1622       H  0.93618429  0.39987280  0.45863065     0.15700
H1623       H  0.84159359  0.36973118  0.04393557     0.15400
N1624       N  0.90899010  0.43855829  0.05164616     0.74500
O1625       O  0.84212610  0.31880864  0.43695014    -0.38900
O1626       O  0.89718441  0.31803080  0.94720960    -0.38900
O1627       O  0.88161562  0.43858853  0.56791721    -0.39600
O1628       O  0.94461316  0.45863371  0.06075317    -0.39700
C1629       C  0.59869241  0.51481527  0.47481375    -0.11900
C1630       C  0.57442321  0.00232806  0.00137472     0.05100
C1631       C  0.58681734  0.99018837  0.02796636    -0.07200
C1632       C  0.62242739  0.98913635  0.02687320    -0.08000
C1633       C  0.64601490  0.00094471  0.00039296    -0.02500
C1634       C  0.63450990  0.51458494  0.47405280     0.04300
N1635       N  0.65726956  0.52539997  0.44624691     0.66800
H1636       H  0.58895835  0.52340236  0.45435628     0.15700
H1637       H  0.63232571  0.97986915  0.04696817     0.15400
N1638       N  0.56397781  0.97894190  0.05599148     0.74500
O1639       O  0.66263827  0.49999307  0.43239605    -0.38900
O1640       O  0.66448443  0.05492561  0.43162299    -0.38900
O1641       O  0.56540350  0.45391300  0.07384513    -0.39600
O1642       O  0.54415365  0.99521019  0.06371948    -0.39700
C1643       C  0.85480862  0.97424897  0.47559818    -0.11900
C1644       C  0.84879806  0.99483032  0.99892419     0.05100
C1645       C  0.87876641  0.51553785  0.02077402    -0.07200
C1646       C  0.91420559  0.51470852  0.01906333    -0.08000
C1647       C  0.92134076  0.99509570  0.99499311    -0.02500
C1648       C  0.89100576  0.97450577  0.47284031     0.04300
N1649       N  0.89618011  0.95412453  0.44721034     0.66800
H1650       H  0.83155262  0.95877705  0.45866328     0.15700
H1651       H  0.93643757  0.52947404  0.03681515     0.15400
N1652       N  0.87310580  0.53640900  0.04541364     0.74500
O1653       O  0.86624097  0.92517202  0.43487950    -0.38900
O1654       O  0.93004821  0.96617292  0.43548245    -0.38900
O1655       O  0.84831918  0.51723788  0.06636107    -0.39600
O1656       O  0.89613874  0.57339007  0.04822026    -0.39700
C1657       C  0.52067839  0.10582122  0.22343529    -0.11900
C1658       C  0.50385257  0.07656170  0.24644711     0.05100
C1659       C  0.98916430  0.08491727  0.27187880    -0.07200
C1660       C  0.98888832  0.12097621  0.27375184    -0.08000
C1661       C  0.50501424  0.14945592  0.25216264    -0.02500
C1662       C  0.52189463  0.14214906  0.22629831     0.04300
N1663       N  0.53890847  0.17078912  0.20209269     0.66800
H1664       H  0.53226586  0.10009915  0.20271464     0.15700
H1665       H  0.97692848  0.12744052  0.29396729     0.15400
N1666       N  0.97542789  0.05802162  0.29777856     0.74500
O1667       O  0.57623212  0.19023299  0.19878798    -0.38900
O1668       O  0.51671409  0.17239588  0.18153952    -0.38900
O1669       O  0.98952734  0.03551507  0.30320743    -0.39600
O1670       O  0.95181899  0.05930615  0.31703652    -0.39700
C1671       C  0.51693888  0.41887349  0.26528508    -0.11900
C1672       C  0.49947287  0.42491243  0.23888983     0.05100
C1673       C  0.98003390  0.39332621  0.21624439    -0.07200
C1674       C  0.97872884  0.35701607  0.22183012    -0.08000
C1675       C  0.49735513  0.35192961  0.24920656    -0.02500
C1676       C  0.51669607  0.38317519  0.27025426     0.04300
N1677       N  0.53490364  0.37849287  0.29737118     0.66800
H1678       H  0.53030125  0.44192493  0.28252900     0.15700
H1679       H  0.96492908  0.33333673  0.20508524     0.15400
N1680       N  0.96281977  0.39795660  0.18832607     0.74500
O1681       O  0.57198695  0.39997587  0.30135050    -0.38900
O1682       O  0.51347297  0.35582928  0.31870649    -0.38900
O1683       O  0.97987447  0.43027541  0.17360126    -0.39600
O1684       O  0.93337230  0.36827050  0.17622943    -0.39700
C1685       C  0.96640199  0.23442222  0.39427868    -0.11900
C1686       C  0.50267209  0.25299859  0.41180539     0.05100
C1687       C  0.53838225  0.27078943  0.39459585    -0.07200
C1688       C  0.53680443  0.26957179  0.36250554    -0.08000
C1689       C  0.50024001  0.25116436  0.34672200    -0.02500
C1690       C  0.96473473  0.23307921  0.36221100     0.04300
N1691       N  0.92648087  0.21305317  0.34776947     0.66800
H1692       H  0.93859599  0.22026117  0.40689428     0.15700
H1693       H  0.56464113  0.28348449  0.34992961     0.15400
N1694       N  0.57658672  0.29064143  0.40914694     0.74500
O1695       O  0.91144706  0.17698989  0.34032971    -0.38900
O1696       O  0.90530369  0.22930592  0.34690271    -0.38900
O1697       O  0.59808677  0.27472749  0.40940070    -0.39600
O1698       O  0.59107383  0.32623246  0.41773535    -0.39700
C1699       C  0.53628086  0.26590781  0.11239522    -0.11900
C1700       C  0.49966268  0.24892277  0.09673823     0.05100
C1701       C  0.96460928  0.23186194  0.11215900    -0.07200
C1702       C  0.96622072  0.23235519  0.14422722    -0.08000
C1703       C  0.50246096  0.24996477  0.16177644    -0.02500
C1704       C  0.53803558  0.26660486  0.14445986     0.04300
N1705       N  0.57628452  0.28411673  0.15886863     0.66800
H1706       H  0.56403779  0.27884491  0.09974648     0.15700
H1707       H  0.93840529  0.21910942  0.15681538     0.15400
N1708       N  0.92639829  0.21401036  0.09766388     0.74500
O1709       O  0.59241219  0.26329923  0.16366855    -0.38900
O1710       O  0.59669710  0.32140650  0.16161750    -0.38900
O1711       O  0.90501116  0.17662673  0.09689068    -0.39600
O1712       O  0.91160930  0.23531154  0.09008160    -0.39700
C1713       C  0.01275488  0.09685153  0.02035372    -0.11900
C1714       C  0.49547891  0.07245853  0.99715950     0.05100
C1715       C  0.47638166  0.08371724  0.47412436    -0.07200
C1716       C  0.47530476  0.11890058  0.97818794    -0.08000
C1717       C  0.99508578  0.14439208  0.00074593    -0.02500
C1718       C  0.01355317  0.13302624  0.02322501     0.04300
N1719       N  0.03234141  0.15744519  0.04947233     0.66800
H1720       H  0.02531801  0.08756436  0.03865341     0.15700
H1721       H  0.46120983  0.12772736  0.96073675     0.15400
N1722       N  0.45840973  0.06024477  0.44717941     0.74500
O1723       O  0.01158060  0.16395102  0.56854561    -0.38900
O1724       O  0.06853844  0.16932907  0.05510177    -0.38900
O1725       O  0.42736390  0.05813526  0.43588202    -0.39600
O1726       O  0.47615222  0.04571999  0.93281471    -0.39700
C1727       C  0.51890807  0.37936326  0.47767044    -0.11900
C1728       C  0.00723927  0.35635276  0.00261258     0.05100
C1729       C  0.99231084  0.36789894  0.02747863    -0.07200
C1730       C  0.98980895  0.40248980  0.02511916    -0.08000
C1731       C  0.50154542  0.42582849  0.00046283    -0.02500
C1732       C  0.51590180  0.41383166  0.47500217     0.04300
N1733       N  0.52573225  0.43504974  0.44611713     0.66800
H1734       H  0.52880627  0.36928605  0.45819997     0.15700
H1735       H  0.97888724  0.41163509  0.04450622     0.15400
N1736       N  0.98034918  0.34513883  0.05539791     0.74500
O1737       O  0.54901984  0.43201447  0.42755727    -0.38900
O1738       O  0.50860338  0.45390861  0.43769842    -0.38900
O1739       O  0.00380172  0.33633101  0.06888791    -0.39600
O1740       O  0.94749516  0.33618323  0.06776274    -0.39700
O1741       O  0.96788200  0.23368920  0.54595902    -0.74100
O1742       O  0.96945307  0.23768437  0.95824706    -0.74100
O1743       O  0.96537486  0.18493797  0.50071361    -0.74200
O1744       O  0.97146317  0.28611143  0.00339203    -0.74200
O1745       O  0.53748928  0.31642260  0.50401403    -0.74200
O1746       O  0.53079387  0.21476038  0.00534580    -0.74100
O1747       O  0.53455383  0.26550842  0.96081740    -0.74100
O1748       O  0.53348278  0.26550424  0.54848585    -0.74200
Ni1749     Ni  0.96619801  0.23453363  0.50210326     1.25400
Ni1750     Ni  0.53624784  0.26657421  0.00467042     1.25400
C1751       C  0.50008015  0.24925581  0.56267679     0.88100
C1752       C  0.50183768  0.25195736  0.94588374     0.88000
C1753       C  0.99752870  0.18337519  0.50186563     0.88000
C1754       C  0.00564364  0.31785331  0.50289782     0.88200
O1755       O  0.97057212  0.18491462  0.75371220    -0.74100
O1756       O  0.96665129  0.28141295  0.75006313    -0.74100
O1757       O  0.96967789  0.23211443  0.70826945    -0.74200
O1758       O  0.96802397  0.23443084  0.79589557    -0.74200
O1759       O  0.53352243  0.26732328  0.79845619    -0.74200
O1760       O  0.53515934  0.26872892  0.71074915    -0.74100
O1761       O  0.53233133  0.31637863  0.75462586    -0.74100
O1762       O  0.53633854  0.21975257  0.75423251    -0.74200
Ni1763     Ni  0.96635989  0.23197584  0.75204439     1.25400
Ni1764     Ni  0.53672468  0.26931937  0.75463084     1.25400
C1765       C  0.50372747  0.18634074  0.75449506     0.88100
C1766       C  0.49851106  0.31459460  0.75246227     0.88000
C1767       C  0.50237236  0.25018076  0.69584408     0.88000
C1768       C  0.50009925  0.25066711  0.81263639     0.88200
C1769       C  0.96246289  0.46116458  0.49788490     0.02600
C1770       C  0.49981909  0.46316671  0.49995112     0.02600
C1771       C  0.53492889  0.00024789  0.49905805     0.02600
C1772       C  0.53346646  0.03572310  0.49659339     0.02600
C1773       C  0.49625399  0.03431701  0.49556869     0.02600
C1774       C  0.96062679  0.99697037  0.49450509     0.02600
C1775       C  0.53814700  0.03654870  0.73857877     0.02600
C1776       C  0.53712806  0.99965580  0.73583645     0.02600
C1777       C  0.49977884  0.46349381  0.73614033     0.02600
C1778       C  0.96363082  0.46431772  0.73535625     0.02600
C1779       C  0.96511528  0.00167422  0.73805290     0.02600
C1780       C  0.50230406  0.03749973  0.74134258     0.02600
O1781       O  0.73258890  0.46730710  0.54429454    -0.74100
O1782       O  0.72827737  0.46463777  0.95650261    -0.74100
O1783       O  0.77891520  0.46419255  0.49931660    -0.74200
O1784       O  0.68189362  0.46704778  0.00175156    -0.74200
O1785       O  0.71619875  0.03327711  0.49879922    -0.74200
O1786       O  0.81343928  0.02999765  0.99972609    -0.74100
O1787       O  0.76435260  0.03067195  0.95559379    -0.74100
O1788       O  0.76561152  0.03338172  0.54300010    -0.74200
Ni1789     Ni  0.72949077  0.46362918  0.50036222     1.25400
Ni1790     Ni  0.76622936  0.03400806  0.99936200     1.25400
C1791       C  0.75018071  0.00079080  0.55822148     0.88100
C1792       C  0.74602177  0.99735145  0.94152485     0.88000
C1793       C  0.81195394  0.99695494  0.49922371     0.88000
C1794       C  0.68314840  0.00041734  0.50029530     0.88200
O1795       O  0.73404390  0.46813561  0.79388207    -0.74100
O1796       O  0.73693661  0.46773316  0.70623093    -0.74100
O1797       O  0.78605240  0.47034795  0.75164966    -0.74200
O1798       O  0.68516495  0.46544123  0.74824361    -0.74200
O1799       O  0.71612009  0.03150965  0.74946449    -0.74200
O1800       O  0.81715485  0.03669348  0.74990648    -0.74100
O1801       O  0.76646925  0.03352374  0.70582390    -0.74100
O1802       O  0.76622081  0.03433529  0.79373841    -0.74200
Ni1803     Ni  0.73450376  0.46555482  0.75007484     1.25400
Ni1804     Ni  0.76764916  0.03641540  0.74976927     1.25400
C1805       C  0.74949508  0.00133642  0.80851439     0.88100
C1806       C  0.75196645  0.00027873  0.69163240     0.88000
C1807       C  0.81800615  0.50423996  0.75032989     0.88000
C1808       C  0.68414976  0.49785392  0.74843355     0.88200
O1809       O  0.68138649  0.21887003  0.50216685    -0.74100
O1810       O  0.78296438  0.31407552  0.00341885    -0.74100
O1811       O  0.73306391  0.26678583  0.95885067    -0.74200
O1812       O  0.73182602  0.26550025  0.54696428    -0.74200
O1813       O  0.76403219  0.23147328  0.54672652    -0.74200
O1814       O  0.76190173  0.22951966  0.95918474    -0.74100
O1815       O  0.81321858  0.27861452  0.50174927    -0.74100
O1816       O  0.71230880  0.18288190  0.00403052    -0.74200
Ni1817     Ni  0.73097346  0.26772829  0.50298535     1.25400
Ni1818     Ni  0.76369175  0.22943152  0.50287706     1.25400
C1819       C  0.68012459  0.18536476  0.50276295     0.88100
C1820       C  0.81436217  0.31212656  0.50253941     0.88000
C1821       C  0.74731954  0.24794994  0.94448991     0.88000
C1822       C  0.74853209  0.24886542  0.56140578     0.88200
O1823       O  0.68672438  0.21278927  0.75406360    -0.74100
O1824       O  0.78212227  0.31405392  0.75121256    -0.74100
O1825       O  0.73320326  0.26187952  0.70896428    -0.74200
O1826       O  0.73569965  0.26478842  0.79666965    -0.74200
O1827       O  0.77039144  0.23325826  0.79714743    -0.74200
O1828       O  0.77055671  0.23312739  0.70919929    -0.74100
O1829       O  0.81837465  0.28400788  0.75320103    -0.74100
O1830       O  0.72269207  0.18240501  0.75283646    -0.74200
Ni1831     Ni  0.73316928  0.26445184  0.75279419     1.25400
Ni1832     Ni  0.77183682  0.23212919  0.75318924     1.25400
C1833       C  0.68903951  0.18109026  0.75307172     0.88100
C1834       C  0.81588849  0.31564201  0.75160340     0.88000
C1835       C  0.75149039  0.24708846  0.69454349     0.88000
C1836       C  0.75318084  0.24924091  0.81147415     0.88200
C1837       C  0.77549754  0.24040111  0.89551485    -0.11900
C1838       C  0.74788342  0.24788021  0.91048355     0.05100
C1839       C  0.72237957  0.25615024  0.89264783    -0.07200
C1840       C  0.72526985  0.25718461  0.86057956    -0.10400
C1841       C  0.75264120  0.24932737  0.84555165    -0.02500
C1842       C  0.77814281  0.24106634  0.86347251     0.04300
N1843       N  0.80763565  0.23428504  0.84970566     0.66800
H1844       H  0.79574996  0.23454582  0.90876254     0.15700
H1845       H  0.70500865  0.26304999  0.84736640     0.15400
N1846       N  0.69226789  0.26191745  0.90656626     0.74500
O1847       O  0.84308211  0.26255438  0.84768936    -0.38900
O1848       O  0.80025531  0.19910238  0.84558824    -0.38900
O1849       O  0.69240564  0.29418589  0.90253284    -0.39600
O1850       O  0.66293758  0.23314831  0.91966697    -0.39700
C1851       C  0.74208262  0.27339276  0.64501321    -0.11900
C1852       C  0.75075389  0.24681041  0.66050877     0.05100
C1853       C  0.75915474  0.22127533  0.64312558    -0.07200
C1854       C  0.75859844  0.22271915  0.61100047    -0.08000
C1855       C  0.74990485  0.24933566  0.59548229    -0.02500
C1856       C  0.74214979  0.27531510  0.61291777     0.04300
N1857       N  0.73603898  0.30505926  0.59855707     0.66800
H1858       H  0.73639548  0.29384895  0.65788450     0.15700
H1859       H  0.76440283  0.20231341  0.59817436     0.15400
N1860       N  0.76707346  0.19282382  0.65762021     0.74500
O1861       O  0.70359625  0.30467604  0.60235896    -0.38900
O1862       O  0.76487550  0.33464723  0.58574952    -0.38900
O1863       O  0.73851292  0.15985414  0.66644685    -0.39600
O1864       O  0.80209607  0.19851345  0.65805139    -0.39700
C1865       C  0.73812972  0.46531926  0.85801612    -0.11900
C1866       C  0.74813378  0.00099949  0.84255350     0.05100
C1867       C  0.75362620  0.03413920  0.85983641    -0.07200
C1868       C  0.75217565  0.03191033  0.89193999    -0.08000
C1869       C  0.74548327  0.99735288  0.90752737    -0.02500
C1870       C  0.73647552  0.46321785  0.89010011     0.04300
N1871       N  0.72688440  0.42644437  0.90468209     0.66800
H1872       H  0.73192818  0.43887410  0.84535434     0.15700
H1873       H  0.75642752  0.05760545  0.90475833     0.15400
N1874       N  0.75984786  0.06999729  0.84539956     0.74500
O1875       O  0.69088297  0.40004264  0.90833224    -0.38900
O1876       O  0.75399544  0.41820299  0.90984915    -0.38900
O1877       O  0.73427355  0.08071215  0.84879342    -0.39600
O1878       O  0.79414694  0.09495483  0.83579158    -0.39700
C1879       C  0.72483828  0.46675382  0.60846914    -0.11900
C1880       C  0.75198854  0.00155681  0.59232789     0.05100
C1881       C  0.77107507  0.03741074  0.60927049    -0.07200
C1882       C  0.77039938  0.03616906  0.64141688    -0.08000
C1883       C  0.75148847  0.99986064  0.65750018    -0.02500
C1884       C  0.72381072  0.46586571  0.64058752     0.04300
N1885       N  0.69468491  0.43025995  0.65562743     0.66800
H1886       H  0.70420947  0.44010472  0.59611369     0.15700
H1887       H  0.78529368  0.06403539  0.65381234     0.15400
N1888       N  0.79170465  0.07539919  0.59442301     0.74500
O1889       O  0.66612462  0.42992021  0.66972631    -0.38900
O1890       O  0.69419599  0.39795390  0.65107750    -0.38900
O1891       O  0.77884306  0.09936767  0.59689066    -0.39600
O1892       O  0.82591591  0.08740742  0.58333425    -0.39700
C1893       C  0.58721210  0.09402136  0.76992856    -0.11900
C1894       C  0.57720407  0.07432622  0.74147558     0.05100
C1895       C  0.60510517  0.08954122  0.71711544    -0.07200
C1896       C  0.64261053  0.12318361  0.72222073    -0.08000
C1897       C  0.65214366  0.14271851  0.75055342    -0.02500
C1898       C  0.62427552  0.12807558  0.77456256     0.04300
N1899       N  0.63371153  0.14696088  0.80395576     0.66800
H1900       H  0.56640726  0.08227461  0.78887848     0.15700
H1901       H  0.66376835  0.13551342  0.70348404     0.15400
N1902       N  0.59537547  0.07244031  0.68692385     0.74500
O1903       O  0.61307596  0.16094081  0.81466369    -0.38900
O1904       O  0.66022561  0.14631707  0.82045308    -0.38900
O1905       O  0.56120703  0.06070919  0.67573082    -0.39600
O1906       O  0.62232415  0.07387475  0.66983717    -0.39700
C1907       C  0.91975927  0.40217625  0.76461233    -0.11900
C1908       C  0.92476234  0.42612273  0.73873359     0.05100
C1909       C  0.89211332  0.41440397  0.71831542    -0.07200
C1910       C  0.85624032  0.37912355  0.72412411    -0.08000
C1911       C  0.85247875  0.35449910  0.74898425    -0.02500
C1912       C  0.88447194  0.36620136  0.76953812     0.04300
N1913       N  0.88106678  0.34266005  0.79606162     0.66800
H1914       H  0.94341296  0.41186371  0.78145563     0.15700
H1915       H  0.83158532  0.36981476  0.70822198     0.15400
N1916       N  0.89452207  0.43742273  0.69165136     0.74500
O1917       O  0.90952276  0.33733995  0.80366281    -0.38900
O1918       O  0.85138736  0.33059697  0.81365485    -0.38900
O1919       O  0.92417168  0.45053604  0.67400839    -0.39600
O1920       O  0.86466839  0.44007076  0.68340448    -0.39700
C1921       C  0.62225832  0.97910088  0.71990717    -0.11900
C1922       C  0.64573350  0.49627910  0.74634879     0.05100
C1923       C  0.63387947  0.51410744  0.76874419    -0.07200
C1924       C  0.59825712  0.51429002  0.76490057    -0.08000
C1925       C  0.57531540  0.99891052  0.73779784    -0.02500
C1926       C  0.58759363  0.98125593  0.71507207     0.04300
N1927       N  0.56612853  0.96635437  0.68681904     0.66800
H1928       H  0.63205688  0.96613219  0.70241208     0.15700
H1929       H  0.58822668  0.52589337  0.78322733     0.15400
N1930       N  0.65728846  0.53140924  0.79576801     0.74500
O1931       O  0.56352801  0.93569433  0.67465012    -0.38900
O1932       O  0.55545197  0.98710020  0.67154747    -0.38900
O1933       O  0.66758328  0.56670903  0.80297178    -0.39600
O1934       O  0.66438153  0.51030949  0.81398017    -0.39700
C1935       C  0.90279789  0.98464057  0.76629495    -0.11900
C1936       C  0.92754244  0.00327244  0.74080841     0.05100
C1937       C  0.91667471  0.52423476  0.71865584    -0.07200
C1938       C  0.88178320  0.52590638  0.72378204    -0.08000
C1939       C  0.85697333  0.00608094  0.74944537    -0.02500
C1940       C  0.86743675  0.98527071  0.77042561     0.04300
N1941       N  0.84291797  0.96554634  0.79645955     0.66800
H1942       H  0.91120729  0.96970012  0.78329439     0.15700
H1943       H  0.87303971  0.54130210  0.70744864     0.15400
N1944       N  0.94003670  0.54333173  0.69158122     0.74500
O1945       O  0.82563631  0.92815029  0.79860019    -0.38900
O1946       O  0.84174644  0.98565528  0.81870025    -0.38900
O1947       O  0.96117336  0.53101433  0.67914189    -0.39600
O1948       O  0.93779072  0.57142282  0.67882093    -0.39700
C1949       C  0.59309902  0.08630968  0.52480937    -0.11900
C1950       C  0.57137139  0.07462147  0.49723272     0.05100
C1951       C  0.58510180  0.10071379  0.97204787    -0.07200
C1952       C  0.62007479  0.13770385  0.97473951    -0.08000
C1953       C  0.64151498  0.14874452  0.50188700    -0.02500
C1954       C  0.62780879  0.12316444  0.52742290     0.04300
N1955       N  0.64820414  0.13496722  0.55631059     0.66800
H1956       H  0.58218985  0.06705229  0.54490599     0.15700
H1957       H  0.63126562  0.15737970  0.95494893     0.15400
N1958       N  0.56461276  0.08966412  0.94305938     0.74500
O1959       O  0.65417544  0.16646145  0.06945710    -0.38900
O1960       O  0.65781433  0.11241820  0.57023501    -0.38900
O1961       O  0.56410978  0.11580287  0.92599640    -0.39600
O1962       O  0.55106213  0.05484080  0.43230591    -0.39700
C1963       C  0.91629171  0.39324697  0.97741785    -0.11900
C1964       C  0.92529986  0.42173588  0.50093012     0.05100
C1965       C  0.89876524  0.41258032  0.52594014    -0.07200
C1966       C  0.86213345  0.37685056  0.52548016    -0.08000
C1967       C  0.85288128  0.34909852  0.50193983    -0.02500
C1968       C  0.88084542  0.35678542  0.97806732     0.04300
N1969       N  0.87241568  0.32893879  0.95375401     0.66800
H1970       H  0.93630155  0.39990807  0.95817920     0.15700
H1971       H  0.84119327  0.36991192  0.54413390     0.15400
N1972       N  0.90878734  0.43851580  0.55205701     0.74500
O1973       O  0.84244947  0.31862635  0.93669378    -0.38900
O1974       O  0.89678455  0.31806937  0.44748563    -0.38900
O1975       O  0.88180314  0.43852649  0.06755726    -0.39600
O1976       O  0.94438910  0.45842077  0.56124649    -0.39700
C1977       C  0.59843018  0.51466543  0.97490747    -0.11900
C1978       C  0.57404356  0.00205786  0.50085630     0.05100
C1979       C  0.58646935  0.99007827  0.52751049    -0.07200
C1980       C  0.62217200  0.98920517  0.52652996    -0.08000
C1981       C  0.64579024  0.00096447  0.50006688    -0.02500
C1982       C  0.63418551  0.51430160  0.97421508     0.04300
N1983       N  0.65691516  0.52489093  0.94639449     0.66800
H1984       H  0.58874424  0.52322355  0.95440380     0.15700
H1985       H  0.63210589  0.98010915  0.54670090     0.15400
N1986       N  0.56356166  0.97880250  0.55549214     0.74500
O1987       O  0.66254465  0.49946374  0.93285052    -0.38900
O1988       O  0.66578612  0.05604502  0.93268559    -0.38900
O1989       O  0.56616158  0.45405215  0.57379641    -0.39600
O1990       O  0.54404028  0.99534683  0.56333496    -0.39700
C1991       C  0.85464491  0.97356572  0.97565623    -0.11900
C1992       C  0.84899920  0.99559889  0.49881791     0.05100
C1993       C  0.87906229  0.51580672  0.52115997    -0.07200
C1994       C  0.91445237  0.51489301  0.51948851    -0.08000
C1995       C  0.92138939  0.99544588  0.49506301    -0.02500
C1996       C  0.89093693  0.97403091  0.97281076     0.04300
N1997       N  0.89618769  0.95373887  0.94715181     0.66800
H1998       H  0.83136248  0.95803200  0.95875433     0.15700
H1999       H  0.93665405  0.52958032  0.53727454     0.15400
N2000       N  0.87336180  0.53661331  0.54583272     0.74500
O2001       O  0.86628906  0.92482177  0.93474933    -0.38900
O2002       O  0.93009882  0.96579412  0.93550190    -0.38900
O2003       O  0.84813401  0.51741174  0.56651253    -0.39600
O2004       O  0.89675536  0.57347703  0.54897818    -0.39700
C2005       C  0.52112403  0.10579289  0.72371487    -0.11900
C2006       C  0.50414194  0.07646810  0.74666737     0.05100
C2007       C  0.98961801  0.08497050  0.77212124    -0.07200
C2008       C  0.98934453  0.12103805  0.77398389    -0.08000
C2009       C  0.50502997  0.14924926  0.75225026    -0.02500
C2010       C  0.52223157  0.14207404  0.72652470     0.04300
N2011       N  0.53948532  0.17080299  0.70239993     0.66800
H2012       H  0.53290004  0.10015133  0.70306508     0.15700
H2013       H  0.97753353  0.12758610  0.79424720     0.15400
N2014       N  0.97602934  0.05815260  0.79807200     0.74500
O2015       O  0.57681670  0.18992475  0.69909290    -0.38900
O2016       O  0.51744377  0.17278757  0.68189828    -0.38900
O2017       O  0.99006069  0.03556631  0.80340296    -0.39600
O2018       O  0.95261287  0.05956497  0.81745167    -0.39700
C2019       C  0.51678543  0.41859127  0.76545829    -0.11900
C2020       C  0.49934784  0.42469167  0.73907202     0.05100
C2021       C  0.98059909  0.39330729  0.71585806    -0.07200
C2022       C  0.97937249  0.35705599  0.72155550    -0.08000
C2023       C  0.49714109  0.35164188  0.74932007    -0.02500
C2024       C  0.51649527  0.38285917  0.77039121     0.04300
N2025       N  0.53467764  0.37811278  0.79749383     0.66800
H2026       H  0.53018803  0.44162864  0.78270995     0.15700
H2027       H  0.96557546  0.33329371  0.70487686     0.15400
N2028       N  0.96333465  0.39776669  0.68790120     0.74500
O2029       O  0.57185231  0.39910536  0.80124532    -0.38900
O2030       O  0.51321096  0.35591754  0.81901688    -0.38900
O2031       O  0.98025914  0.43005906  0.67313774    -0.39600
O2032       O  0.93399297  0.36797026  0.67581352    -0.39700
C2033       C  0.96656270  0.23350071  0.89423572    -0.11900
C2034       C  0.50215091  0.25278959  0.91180815     0.05100
C2035       C  0.53788192  0.27113588  0.89462560    -0.07200
C2036       C  0.53635514  0.26976156  0.86254009    -0.08000
C2037       C  0.49982552  0.25074760  0.84673150    -0.02500
C2038       C  0.96500263  0.23206583  0.86216958     0.04300
N2039       N  0.92684941  0.21074909  0.84768220     0.66800
H2040       H  0.93875788  0.21849385  0.90682064     0.15700
H2041       H  0.56420287  0.28413364  0.84998353     0.15400
N2042       N  0.57604387  0.29182772  0.90919451     0.74500
O2043       O  0.91369991  0.17522724  0.83940988    -0.38900
O2044       O  0.90393921  0.22506474  0.84758660    -0.38900
O2045       O  0.59888334  0.27744070  0.90859376    -0.39600
O2046       O  0.58909119  0.32685139  0.91869640    -0.39700
C2047       C  0.53647294  0.26538499  0.61245633    -0.11900
C2048       C  0.49991613  0.24889251  0.59674686     0.05100
C2049       C  0.96499045  0.23184198  0.61222027    -0.07200
C2050       C  0.96665561  0.23233188  0.64428296    -0.08000
C2051       C  0.50255931  0.24987062  0.66179092    -0.02500
C2052       C  0.53815143  0.26606716  0.64452635     0.04300
N2053       N  0.57633419  0.28308618  0.65899454     0.66800
H2054       H  0.56423833  0.27796954  0.59984497     0.15700
H2055       H  0.93885417  0.21901236  0.65689269     0.15400
N2056       N  0.92675207  0.21387950  0.59776659     0.74500
O2057       O  0.59248845  0.26214940  0.66301728    -0.38900
O2058       O  0.59673214  0.32026966  0.66246325    -0.38900
O2059       O  0.90570415  0.17648373  0.59661481    -0.39600
O2060       O  0.91161287  0.23499245  0.59057375    -0.39700
C2061       C  0.01278699  0.09695748  0.52031056    -0.11900
C2062       C  0.49540524  0.07245931  0.49672315     0.05100
C2063       C  0.47628801  0.08350356  0.97454365    -0.07200
C2064       C  0.47551960  0.11915739  0.47787442    -0.08000
C2065       C  0.99522610  0.14454630  0.50069061    -0.02500
C2066       C  0.01356014  0.13310454  0.52322150     0.04300
N2067       N  0.03214740  0.15739851  0.54956596     0.66800
H2068       H  0.02525856  0.08759236  0.53862874     0.15700
H2069       H  0.46158262  0.12816912  0.46042509     0.15400
N2070       N  0.45829115  0.05987131  0.94767220     0.74500
O2071       O  0.01190166  0.16398029  0.06858957    -0.38900
O2072       O  0.06824965  0.16910167  0.55543703    -0.38900
O2073       O  0.42720582  0.05765253  0.93635536    -0.39600
O2074       O  0.47625262  0.04612514  0.43225883    -0.39700
C2075       C  0.51841593  0.37917416  0.97760378    -0.11900
C2076       C  0.00725941  0.35633274  0.50276710     0.05100
C2077       C  0.99264949  0.36793086  0.52780546    -0.07200
C2078       C  0.99002384  0.40245482  0.52555087    -0.08000
C2079       C  0.50186241  0.42589614  0.50051552    -0.02500
C2080       C  0.51553972  0.41371773  0.97494921     0.04300
N2081       N  0.52543756  0.43495629  0.94607208     0.66800
H2082       H  0.52830440  0.36907829  0.95813885     0.15700
H2083       H  0.97933763  0.41165275  0.54505656     0.15400
N2084       N  0.98117655  0.34530760  0.55579388     0.74500
O2085       O  0.54869611  0.43186062  0.92751971    -0.38900
O2086       O  0.50836859  0.45386841  0.93764095    -0.38900
O2087       O  0.00497612  0.33681412  0.56908911    -0.39600
O2088       O  0.94842132  0.33618307  0.56841391    -0.39700
O2089       O  0.96759783  0.73359467  0.04586074    -0.74100
O2090       O  0.96994967  0.73790851  0.45812104    -0.74100
O2091       O  0.96501220  0.68469805  0.00067232    -0.74200
O2092       O  0.97189262  0.78633439  0.50322823    -0.74200
O2093       O  0.53746392  0.81643332  0.00397996    -0.74200
O2094       O  0.53096042  0.71486349  0.50533344    -0.74100
O2095       O  0.53460105  0.76553274  0.46077149    -0.74100
O2096       O  0.53335150  0.76554172  0.04849937    -0.74200
Ni2097     Ni  0.96581859  0.73430779  0.00198837     1.25400
Ni2098     Ni  0.53631618  0.76663627  0.50463483     1.25400
C2099       C  0.49991972  0.74931935  0.06265199     0.88100
C2100       C  0.50186012  0.75189598  0.44585440     0.88000
C2101       C  0.99717433  0.68314279  0.00184039     0.88000
C2102       C  0.00526298  0.81764762  0.00261836     0.88200
O2103       O  0.97093407  0.68523734  0.25352788    -0.74100
O2104       O  0.96690826  0.78167373  0.25003843    -0.74100
O2105       O  0.96990745  0.73248844  0.20815394    -0.74200
O2106       O  0.96840112  0.73466820  0.29578028    -0.74200
O2107       O  0.53318056  0.76740163  0.29839932    -0.74200
O2108       O  0.53471187  0.76879225  0.21072540    -0.74100
O2109       O  0.53187660  0.81640634  0.25459178    -0.74100
O2110       O  0.53596017  0.71983791  0.25416911    -0.74200
Ni2111     Ni  0.96666994  0.73226935  0.25193320     1.25400
Ni2112     Ni  0.53631642  0.76938423  0.25458641     1.25400
C2113       C  0.50335548  0.68642215  0.25444449     0.88100
C2114       C  0.49804255  0.81458778  0.25241941     0.88000
C2115       C  0.50193645  0.75019176  0.19582018     0.88000
C2116       C  0.49978409  0.75073500  0.31260877     0.88200
C2117       C  0.96234099  0.96114159  0.99738181     0.02600
C2118       C  0.49986666  0.96324126  0.00018808     0.02600
C2119       C  0.53499438  0.50027373  0.99930929     0.02600
C2120       C  0.53352571  0.53575528  0.99691141     0.02600
C2121       C  0.49630693  0.53433994  0.99580670     0.02600
C2122       C  0.96060282  0.49672779  0.99448022     0.02600
C2123       C  0.53786886  0.53678843  0.23860749     0.02600
C2124       C  0.53693942  0.49993061  0.23596300     0.02600
C2125       C  0.49962417  0.96352344  0.23572445     0.02600
C2126       C  0.96362898  0.96448676  0.23585233     0.02600
C2127       C  0.96498023  0.50195568  0.23794425     0.02600
C2128       C  0.50197821  0.53764385  0.24127163     0.02600
O2129       O  0.73266539  0.96663435  0.04437909    -0.74100
O2130       O  0.72830904  0.96488592  0.45642581    -0.74100
O2131       O  0.77854024  0.96361316  0.99907395    -0.74200
O2132       O  0.68189170  0.96694668  0.50179192    -0.74200
O2133       O  0.71649943  0.53337950  0.99889449    -0.74200
O2134       O  0.81391098  0.53057777  0.49983360    -0.74100
O2135       O  0.76514805  0.53138571  0.45548109    -0.74100
O2136       O  0.76594526  0.53333586  0.04304583    -0.74200
Ni2137     Ni  0.72907366  0.96296759  0.00049486     1.25400
Ni2138     Ni  0.76673545  0.53467308  0.49924112     1.25400
C2139       C  0.74991681  0.50075315  0.05829677     0.88100
C2140       C  0.74699035  0.49808438  0.44138081     0.88000
C2141       C  0.81178975  0.49639245  0.99932902     0.88000
C2142       C  0.68334266  0.50061056  0.00034955     0.88200
O2143       O  0.73371308  0.96810544  0.29411589    -0.74100
O2144       O  0.73707284  0.96730846  0.20653538    -0.74100
O2145       O  0.78597224  0.97022907  0.25220563    -0.74200
O2146       O  0.68496128  0.96507494  0.24821456    -0.74200
O2147       O  0.71614129  0.53226130  0.24957154    -0.74200
O2148       O  0.81719547  0.53743749  0.24941437    -0.74100
O2149       O  0.76615623  0.53428671  0.20563397    -0.74100
O2150       O  0.76662210  0.53510926  0.29354850    -0.74200
Ni2151     Ni  0.73437675  0.96531728  0.25034889     1.25400
Ni2152     Ni  0.76768784  0.53717202  0.24957621     1.25400
C2153       C  0.75009621  0.50212686  0.30834519     0.88100
C2154       C  0.75128393  0.50100277  0.19147135     0.88000
C2155       C  0.81788129  0.00415173  0.25081925     0.88000
C2156       C  0.68386950  0.99745342  0.24823921     0.88200
O2157       O  0.68136736  0.71896491  0.00294699    -0.74100
O2158       O  0.78284703  0.81412790  0.50379251    -0.74100
O2159       O  0.73270420  0.76660557  0.45942183    -0.74200
O2160       O  0.73208050  0.76585580  0.04754718    -0.74200
O2161       O  0.76421218  0.73173758  0.04731976    -0.74200
O2162       O  0.76176184  0.72953578  0.45963536    -0.74100
O2163       O  0.81317927  0.77860964  0.00213070    -0.74100
O2164       O  0.71253798  0.68289956  0.50466121    -0.74200
Ni2165     Ni  0.73097864  0.76781365  0.00355733     1.25400
Ni2166     Ni  0.76364116  0.72945971  0.00347633     1.25400
C2167       C  0.68008044  0.68544710  0.00360291     0.88100
C2168       C  0.81435055  0.81213680  0.00282140     0.88000
C2169       C  0.74699329  0.74783988  0.44500255     0.88000
C2170       C  0.74884440  0.74926864  0.06197953     0.88200
O2171       O  0.68641299  0.71322719  0.25435469    -0.74100
O2172       O  0.78198238  0.81441133  0.25188392    -0.74100
O2173       O  0.73319967  0.76249804  0.20943026    -0.74200
O2174       O  0.73524917  0.76495113  0.29718729    -0.74200
O2175       O  0.76991464  0.73339490  0.29763075    -0.74200
O2176       O  0.77033780  0.73349566  0.20970780    -0.74100
O2177       O  0.81811064  0.78423232  0.25380751    -0.74100
O2178       O  0.72227061  0.68272465  0.25321164    -0.74200
Ni2179     Ni  0.73294674  0.76485355  0.25328294     1.25400
Ni2180     Ni  0.77148626  0.73239135  0.25368588     1.25400
C2181       C  0.68865016  0.68148411  0.25334704     0.88100
C2182       C  0.81571541  0.81592224  0.25226344     0.88000
C2183       C  0.75141989  0.74760887  0.19504191     0.88000
C2184       C  0.75266295  0.74931618  0.31197538     0.88200
C2185       C  0.77548123  0.74096654  0.39597581    -0.11900
C2186       C  0.74743481  0.74774668  0.41099589     0.05100
C2187       C  0.72142073  0.75534715  0.39321421    -0.07200
C2188       C  0.72424692  0.75642445  0.36113077    -0.10400
C2189       C  0.75204481  0.74923407  0.34605407    -0.02500
C2190       C  0.77804027  0.74162413  0.36393050     0.04300
N2191       N  0.80796724  0.73554220  0.35011910     0.66800
H2192       H  0.79611012  0.73562784  0.40918968     0.15700
H2193       H  0.70362736  0.76178854  0.34794033     0.15400
N2194       N  0.69089080  0.76038556  0.40720701     0.74500
O2195       O  0.84362188  0.76362325  0.34969778    -0.38900
O2196       O  0.80047090  0.70061603  0.34452488    -0.38900
O2197       O  0.69005127  0.79212074  0.40293723    -0.39600
O2198       O  0.66212780  0.73140120  0.42061949    -0.39700
C2199       C  0.74392875  0.77512685  0.14546033    -0.11900
C2200       C  0.75081375  0.74737164  0.16102894     0.05100
C2201       C  0.75768714  0.72071021  0.14375379    -0.07200
C2202       C  0.75734758  0.72217028  0.11162633    -0.08000
C2203       C  0.75036295  0.74990260  0.09603086    -0.02500
C2204       C  0.74427411  0.77708017  0.11335285     0.04300
N2205       N  0.74033005  0.80808856  0.09885481     0.66800
H2206       H  0.73954589  0.79647022  0.15829634     0.15700
H2207       H  0.76184273  0.70085859  0.09885181     0.15400
N2208       N  0.76365680  0.69104154  0.15837320     0.74500
O2209       O  0.70943417  0.81047483  0.10322088    -0.38900
O2210       O  0.76982988  0.83607947  0.08527077    -0.38900
O2211       O  0.73404256  0.65909411  0.16762047    -0.39600
O2212       O  0.79782023  0.69454707  0.15852746    -0.39700
C2213       C  0.73987046  0.96608953  0.35813075    -0.11900
C2214       C  0.74907644  0.50184281  0.34239775     0.05100
C2215       C  0.75396826  0.53474170  0.35971286    -0.07200
C2216       C  0.75260946  0.53248242  0.39182049    -0.08000
C2217       C  0.74668660  0.49817900  0.40738188    -0.02500
C2218       C  0.73847248  0.96406050  0.39020253     0.04300
N2219       N  0.73138415  0.92809609  0.40486932     0.66800
H2220       H  0.73519401  0.94012403  0.34549492     0.15700
H2221       H  0.75627862  0.55793905  0.40466910     0.15400
N2222       N  0.75941083  0.57034142  0.34531266     0.74500
O2223       O  0.69624293  0.89933388  0.40734431    -0.38900
O2224       O  0.76034586  0.92321307  0.41157767    -0.38900
O2225       O  0.73363951  0.58069636  0.34920332    -0.39600
O2226       O  0.79338737  0.59554447  0.33529867    -0.39700
C2227       C  0.72779327  0.96521286  0.10859998    -0.11900
C2228       C  0.75098482  0.50163589  0.09236988     0.05100
C2229       C  0.77684216  0.53631503  0.10912185    -0.07200
C2230       C  0.77642141  0.53533099  0.14126363    -0.08000
C2231       C  0.75036379  0.50055153  0.15744070    -0.02500
C2232       C  0.72666501  0.96428681  0.14070347     0.04300
N2233       N  0.70006813  0.92753136  0.15567896     0.66800
H2234       H  0.70908917  0.93785148  0.09628849     0.15700
H2235       H  0.79684037  0.56208409  0.15361246     0.15400
N2236       N  0.80423398  0.57265785  0.09406034     0.74500
O2237       O  0.66907438  0.92331167  0.16858976    -0.38900
O2238       O  0.70437996  0.89767090  0.15214208    -0.38900
O2239       O  0.79307129  0.59697843  0.08650566    -0.39600
O2240       O  0.84093952  0.58400304  0.09431509    -0.39700
C2241       C  0.58678563  0.59430188  0.27000817    -0.11900
C2242       C  0.57686815  0.57463804  0.24154051     0.05100
C2243       C  0.60480430  0.58996205  0.21720824    -0.07200
C2244       C  0.64225194  0.62367145  0.22236029    -0.08000
C2245       C  0.65171542  0.64314480  0.25071965    -0.02500
C2246       C  0.62380032  0.62840270  0.27469264     0.04300
N2247       N  0.63314900  0.64721896  0.30410941     0.66800
H2248       H  0.56595894  0.58248456  0.28893859     0.15700
H2249       H  0.66342580  0.63607693  0.20364753     0.15400
N2250       N  0.59518056  0.57288456  0.18700585     0.74500
O2251       O  0.61261937  0.66137336  0.31471788    -0.38900
O2252       O  0.65942512  0.64630338  0.32073013    -0.38900
O2253       O  0.56101583  0.56105849  0.17577085    -0.39600
O2254       O  0.62220593  0.57442067  0.16995532    -0.39700
C2255       C  0.91975534  0.90233013  0.26514160    -0.11900
C2256       C  0.92474949  0.92628554  0.23926533     0.05100
C2257       C  0.89206212  0.91459483  0.21889157    -0.07200
C2258       C  0.85615710  0.87936238  0.22474537    -0.08000
C2259       C  0.85236777  0.85475252  0.24962429    -0.02500
C2260       C  0.88439666  0.86642158  0.27014090     0.04300
N2261       N  0.88094646  0.84293285  0.29671123     0.66800
H2262       H  0.94345219  0.91198334  0.28194332     0.15700
H2263       H  0.83148467  0.87008071  0.20886431     0.15400
N2264       N  0.89446435  0.93759537  0.19221911     0.74500
O2265       O  0.90933128  0.83750531  0.30432153    -0.38900
O2266       O  0.85130230  0.83101322  0.31432464    -0.38900
O2267       O  0.92403105  0.95054840  0.17450424    -0.39600
O2268       O  0.86464060  0.94032232  0.18401697    -0.39700
C2269       C  0.62230460  0.47978557  0.22011526    -0.11900
C2270       C  0.64543386  0.99584763  0.24605552     0.05100
C2271       C  0.63362753  0.01381185  0.26836658    -0.07200
C2272       C  0.59807946  0.01411167  0.26446869    -0.08000
C2273       C  0.57517585  0.49932287  0.23798063    -0.02500
C2274       C  0.58757368  0.48178678  0.21525824     0.04300
N2275       N  0.56615636  0.46684081  0.18699061     0.66800
H2276       H  0.63218412  0.46692027  0.20261848     0.15700
H2277       H  0.58810139  0.02580794  0.28276311     0.15400
N2278       N  0.65705301  0.03118745  0.29536136     0.74500
O2279       O  0.56371590  0.43625612  0.17481058    -0.38900
O2280       O  0.55536065  0.48749244  0.17172173    -0.38900
O2281       O  0.66802342  0.06676586  0.30216135    -0.39600
O2282       O  0.66347992  0.00995722  0.31393334    -0.39700
C2283       C  0.90261663  0.48518181  0.26600006    -0.11900
C2284       C  0.92750869  0.50377754  0.24058184     0.05100
C2285       C  0.91664863  0.02434974  0.21923900    -0.07200
C2286       C  0.88171620  0.02594399  0.22434958    -0.08000
C2287       C  0.85698818  0.50677211  0.24893639    -0.02500
C2288       C  0.86729872  0.48592527  0.27000205     0.04300
N2289       N  0.84265696  0.46627313  0.29600022     0.66800
H2290       H  0.91088173  0.47018471  0.28305517     0.15700
H2291       H  0.87291986  0.04126358  0.20798544     0.15400
N2292       N  0.93994530  0.04338627  0.19212651     0.74500
O2293       O  0.82555383  0.42890224  0.29831118    -0.38900
O2294       O  0.84101187  0.48644926  0.31799501    -0.38900
O2295       O  0.96102909  0.03102212  0.17966442    -0.39600
O2296       O  0.93765082  0.07143421  0.17933683    -0.39700
C2297       C  0.59321238  0.58605385  0.02527541    -0.11900
C2298       C  0.57142290  0.57466792  0.99770902     0.05100
C2299       C  0.58533003  0.60099325  0.47239944    -0.07200
C2300       C  0.62026030  0.63795733  0.47534031    -0.08000
C2301       C  0.64146368  0.64883186  0.00268823    -0.02500
C2302       C  0.62791171  0.62291475  0.02803052     0.04300
N2303       N  0.64845669  0.63434290  0.05687774     0.66800
H2304       H  0.58241165  0.56656319  0.04519863     0.15700
H2305       H  0.63142648  0.65792933  0.45572137     0.15400
N2306       N  0.56492630  0.59032471  0.44336939     0.74500
O2307       O  0.65482265  0.66518297  0.57016294    -0.38900
O2308       O  0.65803180  0.61156601  0.07047960    -0.38900
O2309       O  0.56447780  0.61668406  0.42654701    -0.39600
O2310       O  0.55130639  0.55558796  0.93268664    -0.39700
C2311       C  0.91607446  0.89343568  0.47736130    -0.11900
C2312       C  0.92519856  0.92174859  0.00060803     0.05100
C2313       C  0.89885058  0.91272989  0.02573390    -0.07200
C2314       C  0.86224974  0.87697879  0.02547423    -0.08000
C2315       C  0.85286286  0.84908383  0.00203214    -0.02500
C2316       C  0.88062834  0.85697691  0.47809022     0.04300
N2317       N  0.87210243  0.82908627  0.45379659     0.66800
H2318       H  0.93602602  0.90005277  0.45808687     0.15700
H2319       H  0.84144270  0.87014207  0.04420718     0.15400
N2320       N  0.90902579  0.93882060  0.05176752     0.74500
O2321       O  0.84216154  0.81887548  0.43672988    -0.38900
O2322       O  0.89629592  0.81748482  0.94774049    -0.38900
O2323       O  0.88184376  0.93898113  0.56747261    -0.39600
O2324       O  0.94468838  0.95883229  0.06079795    -0.39700
C2325       C  0.59812557  0.01410936  0.47456207    -0.11900
C2326       C  0.57413691  0.50210740  0.00109323     0.05100
C2327       C  0.58649831  0.48987284  0.02765565    -0.07200
C2328       C  0.62225512  0.48908954  0.02660936    -0.08000
C2329       C  0.64606214  0.50132983  0.00024230    -0.02500
C2330       C  0.63375561  0.01349598  0.47386448     0.04300
N2331       N  0.65614625  0.02332470  0.44588685     0.66800
H2332       H  0.58831182  0.02236120  0.45397340     0.15700
H2333       H  0.63210373  0.47970231  0.04666679     0.15400
N2334       N  0.56352750  0.47833002  0.05562176     0.74500
O2335       O  0.66238003  0.99781639  0.43315886    -0.38900
O2336       O  0.66709074  0.55819585  0.43332299    -0.38900
O2337       O  0.56564567  0.95442869  0.07423481    -0.39600
O2338       O  0.54338419  0.49426290  0.06333440    -0.39700
C2339       C  0.85496025  0.47396805  0.47597801    -0.11900
C2340       C  0.84877219  0.49488961  0.99891773     0.05100
C2341       C  0.87880292  0.01555061  0.02075754    -0.07200
C2342       C  0.91424836  0.01475963  0.01903579    -0.08000
C2343       C  0.92130707  0.49504703  0.99501548    -0.02500
C2344       C  0.89117032  0.47425993  0.47320658     0.04300
N2345       N  0.89638858  0.45392990  0.44755686     0.66800
H2346       H  0.83172349  0.45854168  0.45902675     0.15700
H2347       H  0.93647589  0.02952306  0.03679109     0.15400
N2348       N  0.87314925  0.03643499  0.04539188     0.74500
O2349       O  0.86645912  0.42510762  0.43509911    -0.38900
O2350       O  0.93030859  0.46586458  0.43596622    -0.38900
O2351       O  0.84802339  0.01728816  0.06614652    -0.39600
O2352       O  0.89656698  0.07330673  0.04846720    -0.39700
C2353       C  0.52051232  0.60580707  0.22352055    -0.11900
C2354       C  0.50371649  0.57656327  0.24654772     0.05100
C2355       C  0.98966477  0.58521714  0.27199588    -0.07200
C2356       C  0.98943005  0.62130577  0.27379390    -0.08000
C2357       C  0.50465924  0.64934864  0.25217289    -0.02500
C2358       C  0.52161577  0.64208399  0.22633883     0.04300
N2359       N  0.53859431  0.67071422  0.20212250     0.66800
H2360       H  0.53216245  0.60011208  0.20282461     0.15700
H2361       H  0.97743629  0.62782044  0.29396502     0.15400
N2362       N  0.97590590  0.55837483  0.29792897     0.74500
O2363       O  0.57593644  0.69053822  0.19903521    -0.38900
O2364       O  0.51643027  0.67201801  0.18139669    -0.38900
O2365       O  0.98991111  0.53578778  0.30335981    -0.39600
O2366       O  0.95242554  0.55981960  0.31722778    -0.39700
C2367       C  0.51640622  0.91861379  0.26520891    -0.11900
C2368       C  0.49911587  0.92470776  0.23873275     0.05100
C2369       C  0.98069108  0.89359164  0.21605921    -0.07200
C2370       C  0.97954208  0.85735681  0.22164162    -0.08000
C2371       C  0.49665841  0.85160569  0.24921002    -0.02500
C2372       C  0.51595269  0.88283152  0.27027773     0.04300
N2373       N  0.53387322  0.87803303  0.29751871     0.66800
H2374       H  0.52977439  0.94168315  0.28244011     0.15700
H2375       H  0.96580499  0.83366594  0.20490027     0.15400
N2376       N  0.96347580  0.89816313  0.18811830     0.74500
O2377       O  0.57095058  0.89931810  0.30163838    -0.38900
O2378       O  0.51220361  0.85548694  0.31881407    -0.38900
O2379       O  0.98043163  0.93051825  0.17343595    -0.39600
O2380       O  0.93418482  0.86840717  0.17594356    -0.39700
C2381       C  0.96702767  0.73329487  0.39410415    -0.11900
C2382       C  0.50210475  0.75269176  0.41177868     0.05100
C2383       C  0.53779017  0.77091485  0.39454435    -0.07200
C2384       C  0.53617616  0.76963023  0.36245954    -0.08000
C2385       C  0.49959893  0.75080044  0.34670329    -0.02500
C2386       C  0.96546259  0.73185527  0.36203862     0.04300
N2387       N  0.92734816  0.71003231  0.34756573     0.66800
H2388       H  0.93925925  0.71789403  0.40670476     0.15700
H2389       H  0.56399630  0.78389516  0.34986469     0.15400
N2390       N  0.57599676  0.79135041  0.40906122     0.74500
O2391       O  0.91473604  0.67460570  0.33928190    -0.38900
O2392       O  0.90397884  0.72380954  0.34745029    -0.38900
O2393       O  0.59840730  0.77646343  0.40869926    -0.39600
O2394       O  0.58953836  0.82658540  0.41823445    -0.39700
C2395       C  0.53624048  0.76640977  0.11247144    -0.11900
C2396       C  0.49967877  0.74898512  0.09672009     0.05100
C2397       C  0.96500522  0.73381523  0.11213722    -0.07200
C2398       C  0.96676578  0.73439500  0.14419813    -0.08000
C2399       C  0.50217884  0.74984927  0.16176645    -0.02500
C2400       C  0.53785000  0.76699356  0.14453921     0.04300
N2401       N  0.57606007  0.78490545  0.15904239     0.66800
H2402       H  0.56406680  0.77975103  0.09989465     0.15700
H2403       H  0.93908966  0.72246240  0.15686405     0.15400
N2404       N  0.92686085  0.71778913  0.09774472     0.74500
O2405       O  0.59206937  0.76417222  0.16471220    -0.38900
O2406       O  0.59652168  0.82226868  0.16113499    -0.38900
O2407       O  0.90390327  0.68061767  0.09689084    -0.39600
O2408       O  0.91379300  0.74061228  0.09030682    -0.39700
C2409       C  0.01276788  0.59689262  0.02025015    -0.11900
C2410       C  0.49543504  0.57248091  0.99692315     0.05100
C2411       C  0.47659795  0.58368403  0.47443418    -0.07200
C2412       C  0.47548407  0.61911969  0.97804403    -0.08000
C2413       C  0.99490661  0.64430926  0.00070843    -0.02500
C2414       C  0.01350883  0.63303184  0.02313191     0.04300
N2415       N  0.03240695  0.65752161  0.04932210     0.66800
H2416       H  0.02542609  0.58766343  0.03851790     0.15700
H2417       H  0.46152351  0.62809487  0.96058731     0.15400
N2418       N  0.45864895  0.56013904  0.44751393     0.74500
O2419       O  0.01238648  0.66290590  0.56937525    -0.38900
O2420       O  0.06873102  0.66974446  0.05468965    -0.38900
O2421       O  0.42762733  0.55801836  0.43615448    -0.39600
O2422       O  0.47623882  0.54601838  0.93249899    -0.39700
C2423       C  0.51822263  0.87903819  0.47739620    -0.11900
C2424       C  0.00690119  0.85615107  0.00242929     0.05100
C2425       C  0.99200950  0.86769428  0.02732860    -0.07200
C2426       C  0.98952241  0.90228911  0.02498557    -0.08000
C2427       C  0.50204165  0.92603807  0.00070555    -0.02500
C2428       C  0.51535655  0.91358816  0.47470585     0.04300
N2429       N  0.52512029  0.93470819  0.44577368     0.66800
H2430       H  0.52803132  0.86886758  0.45792893     0.15700
H2431       H  0.97864463  0.91145504  0.04438845     0.15400
N2432       N  0.98012016  0.84497221  0.05527623     0.74500
O2433       O  0.54810917  0.93135353  0.42710105    -0.38900
O2434       O  0.50818697  0.95378190  0.43742570    -0.38900
O2435       O  0.00340273  0.83572639  0.06850617    -0.39600
O2436       O  0.94773637  0.83683586  0.06807740    -0.39700
O2437       O  0.96833495  0.73396984  0.54576676    -0.74100
O2438       O  0.96900013  0.73735723  0.95816238    -0.74100
O2439       O  0.96594859  0.68519735  0.50057863    -0.74200
O2440       O  0.97116172  0.78592272  0.00327528    -0.74200
O2441       O  0.53693771  0.81628407  0.50385893    -0.74200
O2442       O  0.53103921  0.71480670  0.00538874    -0.74100
O2443       O  0.53508736  0.76567688  0.96084671    -0.74100
O2444       O  0.53319954  0.76557437  0.54842236    -0.74200
Ni2445     Ni  0.96666655  0.73476650  0.50191578     1.25400
Ni2446     Ni  0.53662899  0.76667945  0.00472001     1.25400
C2447       C  0.49981398  0.74922908  0.56264350     0.88100
C2448       C  0.50239832  0.75208973  0.94586568     0.88000
C2449       C  0.99812035  0.68366455  0.50180344     0.88000
C2450       C  0.00595208  0.81811123  0.50260306     0.88200
O2451       O  0.97038965  0.68483827  0.75328264    -0.74100
O2452       O  0.96659983  0.78140876  0.74995706    -0.74100
O2453       O  0.96974820  0.73236054  0.70800711    -0.74200
O2454       O  0.96769658  0.73411137  0.79565084    -0.74200
O2455       O  0.53373645  0.76748648  0.79836436    -0.74200
O2456       O  0.53505827  0.76868273  0.71067204    -0.74100
O2457       O  0.53241407  0.81643143  0.75451367    -0.74100
O2458       O  0.53631008  0.71977115  0.75415821    -0.74200
Ni2459     Ni  0.96623656  0.73193490  0.75177758     1.25400
Ni2460     Ni  0.53676886  0.76936527  0.75453795     1.25400
C2461       C  0.50366665  0.68639199  0.75448689     0.88100
C2462       C  0.49859414  0.81464998  0.75238344     0.88000
C2463       C  0.50224001  0.75010402  0.69581427     0.88000
C2464       C  0.50036337  0.75090720  0.81260780     0.88200
C2465       C  0.96239556  0.96137707  0.49725924     0.02600
C2466       C  0.49946386  0.96308686  0.49963500     0.02600
C2467       C  0.53529243  0.50032083  0.49935371     0.02600
C2468       C  0.53383251  0.53581004  0.49704962     0.02600
C2469       C  0.49662343  0.53442351  0.49598182     0.02600
C2470       C  0.96072626  0.49675732  0.49498642     0.02600
C2471       C  0.53788582  0.53662342  0.73878748     0.02600
C2472       C  0.53691120  0.49974204  0.73616670     0.02600
C2473       C  0.49997108  0.96346350  0.73583563     0.02600
C2474       C  0.96384334  0.96442936  0.73603677     0.02600
C2475       C  0.96483183  0.50153300  0.73728758     0.02600
C2476       C  0.50201311  0.53750699  0.74143173     0.02600
O2477       O  0.73298643  0.96724289  0.54428782    -0.74100
O2478       O  0.72831767  0.96449873  0.95649860    -0.74100
O2479       O  0.77875183  0.96428065  0.49892638    -0.74200
O2480       O  0.68185984  0.96665326  0.00181915    -0.74200
O2481       O  0.71689153  0.53370286  0.49874913    -0.74200
O2482       O  0.81350005  0.53018800  0.99957763    -0.74100
O2483       O  0.76435020  0.53077311  0.95542298    -0.74100
O2484       O  0.76601566  0.53349236  0.54307941    -0.74200
Ni2485     Ni  0.72921258  0.96345895  0.50041487     1.25400
Ni2486     Ni  0.76632380  0.53430232  0.99918639     1.25400
C2487       C  0.74986494  0.50085005  0.55824511     0.88100
C2488       C  0.74590661  0.49741118  0.94141584     0.88000
C2489       C  0.81219614  0.49678115  0.49958333     0.88000
C2490       C  0.68374690  0.50090428  0.50004159     0.88200
O2491       O  0.73398543  0.96815620  0.79419871    -0.74100
O2492       O  0.73779608  0.96756359  0.70662623    -0.74100
O2493       O  0.78646571  0.97043714  0.75245448    -0.74200
O2494       O  0.68542951  0.96518459  0.74815522    -0.74200
O2495       O  0.71602784  0.53177666  0.74967241    -0.74200
O2496       O  0.81692852  0.53662763  0.74931079    -0.74100
O2497       O  0.76593959  0.53380296  0.70564261    -0.74100
O2498       O  0.76645268  0.53432322  0.79355923    -0.74200
Ni2499     Ni  0.73486236  0.96547677  0.75043400     1.25400
Ni2500     Ni  0.76750977  0.53653232  0.74958756     1.25400
C2501       C  0.74966118  0.50127031  0.80827768     0.88100
C2502       C  0.75100726  0.50057061  0.69140026     0.88000
C2503       C  0.81835551  0.00438057  0.75115252     0.88000
C2504       C  0.68430560  0.99754573  0.74818223     0.88200
O2505       O  0.68190230  0.71863747  0.50293040    -0.74100
O2506       O  0.78253490  0.81428538  0.00403206    -0.74100
O2507       O  0.73238051  0.76704484  0.95955029    -0.74200
O2508       O  0.73258344  0.76576434  0.54741869    -0.74200
O2509       O  0.76486667  0.73180355  0.54727857    -0.74200
O2510       O  0.76111071  0.72969519  0.95969215    -0.74100
O2511       O  0.81372175  0.77866127  0.50202407    -0.74100
O2512       O  0.71183232  0.68306633  0.00464792    -0.74200
Ni2513     Ni  0.73139562  0.76755298  0.50342532     1.25400
Ni2514     Ni  0.76428688  0.72940897  0.50343200     1.25400
C2515       C  0.68072550  0.68517872  0.50362774     0.88100
C2516       C  0.81473676  0.81211762  0.50262643     0.88000
C2517       C  0.74651437  0.74817509  0.94508043     0.88000
C2518       C  0.74941738  0.74928613  0.56190317     0.88200
O2519       O  0.68640572  0.71333766  0.75422062    -0.74100
O2520       O  0.78210913  0.81445463  0.75181769    -0.74100
O2521       O  0.73343650  0.76251661  0.70933052    -0.74200
O2522       O  0.73517433  0.76517735  0.79708097    -0.74200
O2523       O  0.76961903  0.73340415  0.79775203    -0.74200
O2524       O  0.77057873  0.73353302  0.70982317    -0.74100
O2525       O  0.81813116  0.78418090  0.75403923    -0.74100
O2526       O  0.72219730  0.68276405  0.75322782    -0.74200
Ni2527     Ni  0.73301080  0.76494787  0.75317134     1.25400
Ni2528     Ni  0.77144778  0.73239006  0.75381438     1.25400
C2529       C  0.68859635  0.68156194  0.75327591     0.88100
C2530       C  0.81581491  0.81590633  0.75237854     0.88000
C2531       C  0.75176717  0.74767185  0.69503820     0.88000
C2532       C  0.75248262  0.74952812  0.81199128     0.88200
C2533       C  0.77368671  0.73934984  0.89605383    -0.11900
C2534       C  0.74699329  0.74813016  0.91104637     0.05100
C2535       C  0.72244899  0.75773319  0.89320032    -0.07200
C2536       C  0.72542163  0.75880069  0.86112009    -0.10400
C2537       C  0.75192518  0.74970733  0.84608788    -0.02500
C2538       C  0.77644896  0.74011671  0.86402633     0.04300
N2539       N  0.80507237  0.73201310  0.85029514     0.66800
H2540       H  0.79323380  0.73246927  0.90927200     0.15700
H2541       H  0.70589624  0.76570084  0.84790335     0.15400
N2542       N  0.69323031  0.76489299  0.90710175     0.74500
O2543       O  0.84009592  0.76013696  0.84575169    -0.38900
O2544       O  0.79774470  0.69657146  0.84839847    -0.38900
O2545       O  0.69468811  0.79778843  0.90301071    -0.39600
O2546       O  0.66331996  0.73677328  0.92019901    -0.39700
C2547       C  0.74347126  0.77455305  0.64539173    -0.11900
C2548       C  0.75137530  0.74750665  0.66100271     0.05100
C2549       C  0.75934026  0.72157834  0.64373718    -0.07200
C2550       C  0.75896951  0.72299056  0.61160554    -0.08000
C2551       C  0.75091526  0.74997832  0.59597277    -0.02500
C2552       C  0.74376881  0.77646145  0.61328635     0.04300
N2553       N  0.73855365  0.80669238  0.59878437     0.66800
H2554       H  0.73821193  0.79535247  0.65818542     0.15700
H2555       H  0.76433862  0.70223266  0.59886166     0.15400
N2556       N  0.76655117  0.69272304  0.65836097     0.74500
O2557       O  0.70656950  0.80723604  0.60252954    -0.38900
O2558       O  0.76776829  0.83576486  0.58584108    -0.38900
O2559       O  0.73758812  0.65998864  0.66713132    -0.39600
O2560       O  0.80135877  0.69785092  0.65903479    -0.39700
C2561       C  0.74038098  0.96608490  0.85820875    -0.11900
C2562       C  0.74816223  0.50086137  0.84233919     0.05100
C2563       C  0.75578289  0.53469867  0.85961692    -0.07200
C2564       C  0.75430056  0.53259213  0.89171379    -0.08000
C2565       C  0.74522486  0.49731519  0.90736531    -0.02500
C2566       C  0.73905675  0.96399426  0.89028455     0.04300
N2567       N  0.73258579  0.92821182  0.90490546     0.66800
H2568       H  0.73601833  0.94026185  0.84552751     0.15700
H2569       H  0.76033100  0.55894028  0.90444953     0.15400
N2570       N  0.76429611  0.57124877  0.84512373     0.74500
O2571       O  0.69780737  0.89864055  0.90655334    -0.38900
O2572       O  0.76197243  0.92441983  0.91244881    -0.38900
O2573       O  0.73835727  0.58180592  0.84529117    -0.39600
O2574       O  0.79976154  0.59630437  0.83808315    -0.39700
C2575       C  0.73334333  0.96529634  0.60843769    -0.11900
C2576       C  0.75077655  0.50162139  0.59231607     0.05100
C2577       C  0.77680832  0.53616178  0.60914863    -0.07200
C2578       C  0.77636172  0.53502877  0.64128508    -0.08000
C2579       C  0.75008874  0.50026429  0.65737622    -0.02500
C2580       C  0.73273937  0.96406603  0.64052834     0.04300
N2581       N  0.71207790  0.92607349  0.65531818     0.66800
H2582       H  0.71839339  0.93738188  0.59611251     0.15700
H2583       H  0.79692333  0.56165887  0.65370054     0.15400
N2584       N  0.80441483  0.57250164  0.59418122     0.74500
O2585       O  0.67720327  0.91334706  0.66525859    -0.38900
O2586       O  0.72600022  0.90288401  0.65410980    -0.38900
O2587       O  0.79327580  0.59669837  0.58618145    -0.39600
O2588       O  0.84115093  0.58403368  0.59504083    -0.39700
C2589       C  0.58683905  0.59423524  0.77010209    -0.11900
C2590       C  0.57689739  0.57448743  0.74166962     0.05100
C2591       C  0.60475675  0.58983526  0.71728662    -0.07200
C2592       C  0.64216724  0.62364433  0.72235836    -0.08000
C2593       C  0.65164799  0.64320806  0.75068421    -0.02500
C2594       C  0.62379944  0.62844427  0.77470740     0.04300
N2595       N  0.63315849  0.64734955  0.80409432     0.66800
H2596       H  0.56606274  0.58241378  0.78906416     0.15700
H2597       H  0.66330357  0.63603731  0.70361417     0.15400
N2598       N  0.59507851  0.57269100  0.68710796     0.74500
O2599       O  0.61213063  0.66080607  0.81493564    -0.38900
O2600       O  0.66002968  0.64721518  0.82046530    -0.38900
O2601       O  0.56087535  0.56078921  0.67592194    -0.39600
O2602       O  0.62208564  0.57425655  0.67001956    -0.39700
C2603       C  0.91999827  0.90214967  0.76522873    -0.11900
C2604       C  0.92494059  0.92624007  0.73945424     0.05100
C2605       C  0.89219999  0.91465460  0.71915497    -0.07200
C2606       C  0.85626946  0.87945963  0.72502072    -0.08000
C2607       C  0.85252665  0.85470634  0.74977997    -0.02500
C2608       C  0.88465706  0.86620475  0.77017161     0.04300
N2609       N  0.88134763  0.84249596  0.79655775     0.66800
H2610       H  0.94374013  0.91169081  0.78197759     0.15700
H2611       H  0.83154876  0.87029105  0.70920554     0.15400
N2612       N  0.89459892  0.93768437  0.69250527     0.74500
O2613       O  0.90974820  0.83695506  0.80387841    -0.38900
O2614       O  0.85183917  0.83050434  0.81432121    -0.38900
O2615       O  0.92409684  0.95051767  0.67473020    -0.39600
O2616       O  0.86478268  0.94044333  0.68433454    -0.39700
C2617       C  0.62214139  0.47947321  0.72024756    -0.11900
C2618       C  0.64585760  0.99591164  0.74601093     0.05100
C2619       C  0.63402425  0.01378110  0.76837747    -0.07200
C2620       C  0.59844288  0.01402427  0.76454538    -0.08000
C2621       C  0.57512098  0.49910328  0.73816033    -0.02500
C2622       C  0.58744462  0.48152712  0.71542547     0.04300
N2623       N  0.56599048  0.46660090  0.68717071     0.66800
H2624       H  0.63196286  0.46658061  0.70273246     0.15700
H2625       H  0.58846086  0.02565623  0.78288371     0.15400
N2626       N  0.65746754  0.03112223  0.79536462     0.74500
O2627       O  0.56346284  0.43597535  0.67499592    -0.38900
O2628       O  0.55528074  0.48731577  0.67189409    -0.38900
O2629       O  0.66888354  0.06685256  0.80197548    -0.39600
O2630       O  0.66345081  0.00975648  0.81411354    -0.39700
C2631       C  0.90231010  0.48425918  0.76532904    -0.11900
C2632       C  0.92719001  0.50305429  0.73994001     0.05100
C2633       C  0.91694775  0.02434051  0.71948016    -0.07200
C2634       C  0.88209118  0.02604241  0.72464400    -0.08000
C2635       C  0.85655559  0.50579534  0.74850114    -0.02500
C2636       C  0.86691607  0.48482748  0.76940194     0.04300
N2637       N  0.84225780  0.46488216  0.79532014     0.66800
H2638       H  0.91065043  0.46925818  0.78232282     0.15700
H2639       H  0.87325389  0.04130102  0.70825410     0.15400
N2640       N  0.94014838  0.04323270  0.69229310     0.74500
O2641       O  0.82468290  0.42744608  0.79713357    -0.38900
O2642       O  0.84120651  0.48478211  0.81776130    -0.38900
O2643       O  0.96129929  0.03089678  0.67990661    -0.39600
O2644       O  0.93772913  0.07114253  0.67937903    -0.39700
C2645       C  0.59365765  0.58593068  0.52538591    -0.11900
C2646       C  0.57176236  0.57467636  0.49785728     0.05100
C2647       C  0.58493246  0.60100501  0.97225131    -0.07200
C2648       C  0.61969544  0.63811259  0.97524961    -0.08000
C2649       C  0.64213767  0.64854750  0.50272513    -0.02500
C2650       C  0.62854332  0.62265236  0.52807065     0.04300
N2651       N  0.64921173  0.63397499  0.55686600     0.66800
H2652       H  0.58285016  0.56646701  0.54528562     0.15700
H2653       H  0.63085283  0.65810881  0.95562206     0.15400
N2654       N  0.56464387  0.59020749  0.94317299     0.74500
O2655       O  0.65426126  0.66574798  0.06995422    -0.38900
O2656       O  0.65916790  0.61131409  0.57017729    -0.38900
O2657       O  0.56423796  0.61648512  0.92621962    -0.39600
O2658       O  0.55158271  0.55576194  0.43276356    -0.39700
C2659       C  0.91590091  0.89313251  0.97759948    -0.11900
C2660       C  0.92528002  0.92198159  0.50041134     0.05100
C2661       C  0.89891763  0.91285040  0.52553612    -0.07200
C2662       C  0.86241643  0.87700478  0.52527874    -0.08000
C2663       C  0.85314471  0.84915426  0.50182080    -0.02500
C2664       C  0.88036005  0.85675246  0.97834084     0.04300
N2665       N  0.87177347  0.82877202  0.95410541     0.66800
H2666       H  0.93584291  0.89964241  0.95833481     0.15700
H2667       H  0.84160196  0.87006260  0.54402549     0.15400
N2668       N  0.90899066  0.93891382  0.55157469     0.74500
O2669       O  0.84188442  0.81860884  0.93698737    -0.38900
O2670       O  0.89678606  0.81806697  0.44725676    -0.38900
O2671       O  0.88194372  0.93892531  0.06772794    -0.39600
O2672       O  0.94462318  0.95894055  0.56066966    -0.39700
C2673       C  0.59852638  0.01450626  0.97508750    -0.11900
C2674       C  0.57443884  0.50214632  0.50102690     0.05100
C2675       C  0.58689269  0.48990191  0.52753472    -0.07200
C2676       C  0.62268725  0.48920567  0.52639328    -0.08000
C2677       C  0.64645174  0.50156976  0.50000618    -0.02500
C2678       C  0.63409336  0.01378419  0.97431380     0.04300
N2679       N  0.65655723  0.02384803  0.94637216     0.66800
H2680       H  0.58878096  0.02294044  0.95455822     0.15700
H2681       H  0.63260903  0.47979940  0.54639713     0.15400
N2682       N  0.56399816  0.47828218  0.55554306     0.74500
O2683       O  0.66211907  0.99818689  0.93314575    -0.38900
O2684       O  0.66632739  0.55737453  0.93310509    -0.38900
O2685       O  0.56488904  0.95397649  0.57359177    -0.39600
O2686       O  0.54362381  0.49396389  0.56325880    -0.39700
C2687       C  0.85460836  0.47359739  0.97565842    -0.11900
C2688       C  0.84913383  0.49525039  0.49924337     0.05100
C2689       C  0.87894510  0.01620062  0.52072014    -0.07200
C2690       C  0.91432976  0.01521927  0.51908217    -0.08000
C2691       C  0.92152520  0.49520503  0.49544748    -0.02500
C2692       C  0.89088522  0.47399778  0.97283534     0.04300
N2693       N  0.89611034  0.45367659  0.94718601     0.66800
H2694       H  0.83133315  0.45809469  0.95874203     0.15700
H2695       H  0.93654526  0.02995770  0.53684682     0.15400
N2696       N  0.87331803  0.03725266  0.54526267     0.74500
O2697       O  0.86620241  0.42471763  0.93483053    -0.38900
O2698       O  0.93000322  0.46574910  0.93549515    -0.38900
O2699       O  0.84854970  0.01832142  0.56628367    -0.39600
O2700       O  0.89558993  0.07443184  0.54742580    -0.39700
C2701       C  0.52052691  0.60560397  0.72358555    -0.11900
C2702       C  0.50378511  0.57643637  0.74666764     0.05100
C2703       C  0.98887874  0.58460190  0.77137824    -0.07200
C2704       C  0.98863554  0.62067003  0.77328344    -0.08000
C2705       C  0.50487159  0.64927864  0.75223167    -0.02500
C2706       C  0.52167261  0.64189939  0.72635775     0.04300
N2707       N  0.53848055  0.67040260  0.70204010     0.66800
H2708       H  0.53206931  0.59982043  0.70287068     0.15700
H2709       H  0.97654377  0.62705671  0.79345795     0.15400
N2710       N  0.97499264  0.55762028  0.79722293     0.74500
O2711       O  0.57576107  0.68967931  0.69843715    -0.38900
O2712       O  0.51608355  0.67204323  0.68168494    -0.38900
O2713       O  0.98911969  0.53515294  0.80272233    -0.39600
O2714       O  0.95123887  0.55881304  0.81638581    -0.39700
C2715       C  0.51686540  0.91860617  0.76524628    -0.11900
C2716       C  0.49952325  0.92468354  0.73879444     0.05100
C2717       C  0.98075174  0.89350993  0.71611774    -0.07200
C2718       C  0.97942452  0.85719339  0.72171421    -0.08000
C2719       C  0.49723103  0.85166487  0.74918163    -0.02500
C2720       C  0.51650193  0.88286593  0.77026880     0.04300
N2721       N  0.53448071  0.87808132  0.79748319     0.66800
H2722       H  0.53019904  0.94165375  0.78249676     0.15700
H2723       H  0.96556771  0.83349038  0.70499331     0.15400
N2724       N  0.96355615  0.89815653  0.68819339     0.74500
O2725       O  0.57151435  0.89961391  0.80168678    -0.38900
O2726       O  0.51286920  0.85527620  0.81868717    -0.38900
O2727       O  0.98057123  0.93052121  0.67352445    -0.39600
O2728       O  0.93419457  0.86845792  0.67602808    -0.39700
C2729       C  0.96604154  0.73336858  0.89405812    -0.11900
C2730       C  0.50271511  0.75281813  0.91178460     0.05100
C2731       C  0.53840063  0.76998436  0.89455971    -0.07200
C2732       C  0.53678430  0.76882053  0.86246977    -0.08000
C2733       C  0.50020674  0.75102915  0.84670291    -0.02500
C2734       C  0.96450906  0.73198068  0.86197863     0.04300
N2735       N  0.92635027  0.71112382  0.84745106     0.66800
H2736       H  0.93821809  0.71860776  0.90663331     0.15700
H2737       H  0.56460502  0.78222798  0.84988253     0.15400
N2738       N  0.57662561  0.78905502  0.90909416     0.74500
O2739       O  0.91244600  0.67532902  0.83963049    -0.38900
O2740       O  0.90416372  0.72626461  0.84683998    -0.38900
O2741       O  0.59710148  0.77204003  0.90976322    -0.39600
O2742       O  0.59220972  0.82494304  0.91718965    -0.39700
C2743       C  0.53629281  0.76622498  0.61239830    -0.11900
C2744       C  0.49968455  0.74885850  0.59671353     0.05100
C2745       C  0.96537704  0.73327045  0.61198992    -0.07200
C2746       C  0.96695838  0.73371396  0.64405042    -0.08000
C2747       C  0.50238267  0.74971815  0.66175796    -0.02500
C2748       C  0.53799728  0.76678869  0.64446515     0.04300
N2749       N  0.57624278  0.78460559  0.65890172     0.66800
H2750       H  0.56407887  0.77952787  0.59976948     0.15700
H2751       H  0.93916094  0.72113334  0.65661922     0.15400
N2752       N  0.92723297  0.71646044  0.59748462     0.74500
O2753       O  0.59224116  0.76382489  0.66441539    -0.38900
O2754       O  0.59672215  0.82195433  0.66110908    -0.38900
O2755       O  0.90493921  0.67918716  0.59665514    -0.39600
O2756       O  0.91346199  0.73864531  0.58990090    -0.39700
C2757       C  0.01305541  0.59705503  0.52062858    -0.11900
C2758       C  0.49576885  0.57258444  0.49702932     0.05100
C2759       C  0.47638294  0.58369645  0.97431326    -0.07200
C2760       C  0.47558692  0.61905335  0.47814410    -0.08000
C2761       C  0.99582816  0.64479476  0.50071815    -0.02500
C2762       C  0.01413536  0.63338714  0.52329075     0.04300
N2763       N  0.03303611  0.65793400  0.54943732     0.66800
H2764       H  0.02552151  0.58778602  0.53900152     0.15700
H2765       H  0.46149316  0.62791017  0.46071329     0.15400
N2766       N  0.45842283  0.56020561  0.94737166     0.74500
O2767       O  0.01198062  0.66376656  0.06865145    -0.38900
O2768       O  0.06969708  0.67132510  0.55419087    -0.38900
O2769       O  0.42741673  0.55813752  0.93602882    -0.39600
O2770       O  0.47651576  0.54599872  0.43265147    -0.39700
C2771       C  0.51891676  0.87946212  0.97769756    -0.11900
C2772       C  0.00745201  0.85657271  0.50237235     0.05100
C2773       C  0.99232007  0.86799067  0.52719063    -0.07200
C2774       C  0.98961884  0.90247120  0.52478660    -0.08000
C2775       C  0.50149211  0.92580507  0.50024241    -0.02500
C2776       C  0.51597997  0.91397857  0.97511890     0.04300
N2777       N  0.52573119  0.93521439  0.94623966     0.66800
H2778       H  0.52874025  0.86938791  0.95818025     0.15700
H2779       H  0.97859532  0.91154709  0.54415068     0.15400
N2780       N  0.98039086  0.84524654  0.55512397     0.74500
O2781       O  0.54883737  0.93205830  0.92756457    -0.38900
O2782       O  0.50869712  0.95420908  0.93793975    -0.38900
O2783       O  0.00378276  0.83627455  0.56851325    -0.39600
O2784       O  0.94775176  0.83667161  0.56769145    -0.39700
loop_ 
_geom_bond_atom_site_label_1 
_geom_bond_atom_site_label_2 
_geom_bond_distance 
_geom_bond_site_symmetry_2 
_ccdc_geom_bond_type 
O1           Ni9   1.911       .  S
O1         C1403   1.280       .  A
O2         Ni357   1.911       .  S
O2         C1404   1.282       .  A
O3           Ni9   1.913       .  S
O3           C13   1.279       .  A
O4         Ni357   1.910       .  S
O4          C362   1.279       .  A
O5         Ni358   1.917       .  S
O5         C1406   1.280       .  A
O6          Ni10   1.916       .  S
O6         C1753   1.281   1_455  A
O7          Ni10   1.910       .  S
O7           C12   1.280       .  A
O8         Ni358   1.909       .  S
O8           C11   1.281       .  A
Ni9         O350   1.911   1_554  S
Ni9         O352   1.911       .  S
Ni9       Ni1750   2.388       .  S
Ni10        O353   1.917       .  S
Ni10        O356   1.909       .  S
Ni10      Ni1749   2.388   1_455  S
C11        O1393   1.280   1_455  A
C11         C308   1.483       .  S
C12        O1394   1.281   1_455  A
C12         C294   1.483       .  S
C13        O1746   1.281       .  A
C13         C325   1.467       .  S
C14         O352   1.279       .  A
C14        O1397   1.280       .  A
C14         C336   1.464       .  S
O15         Ni23   1.917       .  S
O15        C1417   1.280       .  A
O16         Ni23   1.917       .  S
O16        C1418   1.280       .  A
O17         Ni23   1.909       .  S
O17        C1419   1.281       .  A
O18         Ni23   1.911       .  S
O18        C1420   1.280       .  A
O19         Ni24   1.910       .  S
O19          C28   1.281       .  A
O20         Ni24   1.910       .  S
O20          C27   1.280       .  A
O21         Ni24   1.919       .  S
O21          C26   1.281   1_455  A
O22         Ni24   1.918       .  S
O22          C25   1.281       .  A
Ni23      Ni1416   2.387       .  S
Ni24      Ni1415   2.387   1_455  S
C25        O1407   1.280   1_455  A
C25         C269   1.469       .  S
C26        O1408   1.280       .  A
C26         C283   1.471       .  S
C27        O1409   1.282   1_455  A
C27         C311   1.483       .  S
C28        O1410   1.280   1_455  A
C28         C297   1.484       .  S
C29         C224   1.494   1_556  S
C29        C1422   1.412       .  A
C29         C730   1.421       .  A
C30         C339   1.490   1_655  S
C30        C1421   1.413       .  A
C30         C727   1.409   1_655  A
C31         C238   1.485       .  S
C31          C32   1.410       .  A
C31         C726   1.410   1_445  A
C32         C210   1.489       .  S
C32          C33   1.417   1_455  A
C33         C322   1.500       .  S
C33        C1426   1.424   1_545  A
C34         C255   1.491       .  S
C34         C725   1.422   1_556  A
C34        C1425   1.424   1_565  A
C35         C154   1.495       .  S
C35          C36   1.418   1_545  A
C35          C40   1.413       .  A
C36         C185   1.496       .  S
C36         C733   1.422   1_455  A
C37         C280   1.502       .  S
C37         C732   1.422   1_655  A
C37        C1430   1.426       .  A
C38         C168   1.503       .  S
C38        C1429   1.427       .  A
C38         C735   1.426       .  A
C39         C196   1.495       .  S
C39         C734   1.426   1_545  A
C39        C1432   1.420       .  A
C40         C266   1.498       .  S
C40        C1431   1.419   1_455  A
O41         Ni49   1.918       .  S
O41         C747   1.283       .  A
O42        Ni397   1.920       .  S
O42         C748   1.282       .  A
O43         Ni49   1.905       .  S
O43         C749   1.278       .  A
O44        Ni397   1.907       .  S
O44        C1098   1.278       .  A
O45        Ni398   1.914   1_556  S
O45          C54   1.280   1_556  A
O46         Ni50   1.914       .  S
O46         C401   1.281   1_545  A
O47         Ni50   1.909       .  S
O47          C52   1.280   1_545  A
O48        Ni398   1.909       .  S
O48          C51   1.279       .  A
Ni49        O390   1.919   1_554  S
Ni49        O392   1.906       .  S
Ni49      Ni1094   2.391       .  S
Ni50        O393   1.914       .  S
Ni50        O396   1.909       .  S
Ni50      Ni1093   2.391   1_545  S
C51         O737   1.283   1_545  A
C51         C140   1.484       .  S
C52         O738   1.282       .  A
C52         C129   1.478       .  S
C53         O739   1.278       .  A
C53         O394   1.281   1_565  A
C53         C252   1.463       .  S
C54        O1088   1.278   1_545  A
C54         C241   1.460   1_554  S
O55         Ni63   1.914       .  S
O55         C761   1.282       .  A
O56         Ni63   1.914       .  S
O56         C762   1.281       .  A
O57         Ni63   1.914       .  S
O57          C67   1.280       .  A
O58         Ni63   1.913       .  S
O58          C68   1.279       .  A
O59         Ni64   1.911       .  S
O59         C764   1.279   1_545  A
O60         Ni64   1.916       .  S
O60         C763   1.280       .  A
O61         Ni64   1.914       .  S
O61          C66   1.282       .  A
O62         Ni64   1.914       .  S
O62          C65   1.280       .  A
Ni63       Ni760   2.389       .  S
Ni64       Ni759   2.389   1_545  S
C65         O751   1.281   1_545  A
C65         C126   1.482       .  S
C66         O752   1.281   1_545  A
C66         C143   1.483       .  S
C67         O756   1.280       .  A
C67         C895   1.469       .  S
C68         O755   1.280       .  A
C68         C182   1.463       .  S
O69         Ni77   1.911       .  S
O69          C79   1.278       .  A
O70        Ni425   1.912       .  S
O70         C428   1.279       .  A
O71        Ni425   1.915       .  S
O71          C81   1.281       .  A
O72         Ni77   1.915       .  S
O72          C82   1.281       .  A
O73         Ni78   1.910       .  S
O73          C82   1.281       .  A
O74        Ni426   1.909       .  S
O74          C81   1.281       .  A
O75         Ni78   1.914       .  S
O75          C80   1.280       .  A
O76        Ni426   1.912       .  S
O76         C427   1.280       .  A
Ni77        O418   1.912       .  S
Ni77        O419   1.915   1_554  S
Ni77        Ni78   2.389       .  S
Ni78        O422   1.909   1_554  S
Ni78        O424   1.912       .  S
C79         O424   1.280       .  A
C79         C213   1.461       .  S
C80         O418   1.279       .  A
C80         C227   1.466       .  S
C81          C98   1.483       .  S
C82         C115   1.482       .  S
O83         Ni91   1.913       .  S
O83          C93   1.280       .  A
O84         Ni91   1.913       .  S
O84          C94   1.280       .  A
O85         Ni91   1.909       .  S
O85          C95   1.281       .  A
O86         Ni91   1.910       .  S
O86          C96   1.281       .  A
O87         Ni92   1.915       .  S
O87          C96   1.281       .  A
O88         Ni92   1.914       .  S
O88          C95   1.281       .  A
O89         Ni92   1.917       .  S
O89          C94   1.281       .  A
O90         Ni92   1.916       .  S
O90          C93   1.279       .  A
Ni91        Ni92   2.389       .  S
C93         C157   1.465       .  S
C94         C171   1.470       .  S
C95         C112   1.483       .  S
C96         C101   1.482       .  S
C97          C98   1.406       .  A
C97         C102   1.398       .  A
C97         H104   1.084       .  S
C98          C99   1.413       .  A
C99         C100   1.398       .  A
C99         N106   1.429       .  S
C100        C101   1.405       .  A
C100        H105   1.084       .  S
C101        C102   1.412       .  A
C102        N103   1.429       .  S
N103        O107   1.262       .  A
N103        O108   1.262       .  A
N106        O110   1.262       .  A
N106        O109   1.262       .  A
C111        C112   1.406       .  A
C111        C116   1.398       .  A
C111        H118   1.084       .  S
C112        C113   1.414       .  A
C113        C114   1.399       .  A
C113        N120   1.431       .  S
C114        C115   1.406       .  A
C114        H119   1.084       .  S
C115        C116   1.412       .  A
C116        N117   1.430       .  S
N117        O121   1.262       .  A
N117        O122   1.262       .  A
N120        O124   1.262       .  A
N120        O123   1.262       .  A
C125        C130   1.400       .  A
C125        C822   1.406       .  A
C125        H132   1.084       .  S
C126        C127   1.416       .  A
C126        C821   1.406   1_545  A
C127        C128   1.399       .  A
C127        N134   1.432       .  S
C128        C129   1.403   1_545  A
C128        H133   1.084       .  S
C129        C826   1.409       .  A
C130        C825   1.409       .  A
C130        N131   1.429       .  S
N131        O135   1.262       .  A
N131        O136   1.262       .  A
N134        O138   1.262       .  A
N134        O137   1.262       .  A
C139        C144   1.399       .  A
C139        C836   1.405       .  A
C139        H146   1.084       .  S
C140        C141   1.415       .  A
C140        C835   1.405   1_545  A
C141        C142   1.399       .  A
C141        N148   1.430       .  S
C142        C143   1.404       .  A
C142        H147   1.084       .  S
C143        C840   1.414   1_545  A
C144        C839   1.414       .  A
C144        N145   1.431       .  S
N145        O149   1.262       .  A
N145        O150   1.262       .  A
N148        O152   1.261       .  A
N148        O151   1.262       .  A
C153        C154   1.406       .  A
C153        C158   1.397       .  A
C153        H160   1.082       .  S
C154        C155   1.416       .  A
C155        C156   1.404       .  A
C155        N162   1.437       .  S
C156        C157   1.400       .  A
C156        H161   1.084       .  S
C157        C158   1.404       .  A
C158        N159   1.431       .  S
N159        O163   1.262       .  A
N159        O164   1.262       .  A
N162        O166   1.263       .  A
N162        O165   1.262       .  A
C167        C168   1.409       .  A
C167        C172   1.401       .  A
C167        H174   1.083       .  S
C168        C169   1.421       .  A
C169        C170   1.402       .  A
C169        N176   1.436       .  S
C170        C171   1.399       .  A
C170        H175   1.084       .  S
C171        C172   1.408       .  A
C172        N173   1.436       .  S
N173        O177   1.263       .  A
N173        O178   1.263       .  A
N176        O180   1.263       .  A
N176        O179   1.260       .  A
C181        C186   1.402       .  A
C181        C878   1.399       .  A
C181        H188   1.083       .  S
C182        C183   1.402       .  A
C182        C877   1.399       .  A
C183        C184   1.394       .  A
C183        N190   1.430       .  S
C184        C881   1.406       .  A
C184        H189   1.083       .  S
C185        C186   1.418       .  A
C185        C880   1.406   1_565  A
C186        N187   1.435       .  S
N187        O191   1.263       .  A
N187        O192   1.260       .  A
N190        O194   1.262       .  A
N190        O193   1.262       .  A
C195        C196   1.407   1_565  A
C195        C200   1.396       .  A
C195        H202   1.083       .  S
C196        C893   1.424       .  A
C197        C198   1.406       .  A
C197        C892   1.424       .  A
C197        N204   1.444       .  S
C198        C895   1.400       .  A
C198        H203   1.084       .  S
C199        C763   1.469       .  S
C199        C200   1.404   1_545  A
C199        C894   1.400       .  A
C200        N201   1.430       .  S
N201        O205   1.262       .  A
N201        O206   1.262       .  A
N204        O208   1.263       .  A
N204        O207   1.262       .  A
C209        C210   1.404   1_554  A
C209        C214   1.393       .  A
C209        H216   1.088       .  S
C210        C559   1.416       .  A
C211        C212   1.403       .  A
C211        C558   1.416       .  A
C211        N218   1.437       .  S
C212        C561   1.399       .  A
C212        H217   1.087       .  S
C213        C214   1.403       .  A
C213        C560   1.399   1_554  A
C214        N215   1.431       .  S
N215        O567   1.262       .  A
N215        O220   1.262       .  A
N218        O570   1.262       .  A
N218        O221   1.263       .  A
O219        N563   1.262       .  A
O222        N566   1.262       .  A
C223        C228   1.396       .  A
C223        C572   1.405       .  A
C223        H230   1.082       .  S
C224        C225   1.417       .  A
C224        C571   1.405   1_554  A
C225        C226   1.405       .  A
C225        N232   1.441       .  S
C226        C227   1.401       .  A
C226        H231   1.084       .  S
C227        C576   1.407   1_554  A
C228        C575   1.407       .  A
C228        N229   1.434       .  S
N229        O233   1.262       .  A
N229        O582   1.262       .  A
N232        O236   1.263       .  A
N232        O583   1.263       .  A
O234        N577   1.262       .  A
O235        N580   1.263       .  A
C237        C242   1.395       .  A
C237       C1282   1.402       .  A
C237        H244   1.081       .  S
C238        C239   1.418   1_546  A
C238       C1281   1.403       .  A
C239        C240   1.402       .  A
C239        N246   1.442       .  S
C240        C241   1.399   1_564  A
C240        H245   1.084       .  S
C241       C1286   1.405       .  A
C242       C1285   1.405       .  A
C242        N243   1.433       .  S
N243        O247   1.262       .  A
N243        O944   1.262       .  A
N246        O250   1.262       .  A
N246        O945   1.263       .  A
O248        N939   1.262       .  A
O249        N942   1.263       .  A
C251        C256   1.403       .  A
C251        C600   1.398       .  A
C251        H258   1.083       .  S
C252        C599   1.398   1_554  A
C252        C949   1.402   1_565  A
C253        C254   1.393       .  A
C253        C948   1.402       .  A
C253        N260   1.430       .  S
C254        C951   1.406   1_554  A
C254        H259   1.083       .  S
C255        C950   1.406   1_566  A
C255        C604   1.423       .  A
C256        C603   1.423       .  A
C256        N257   1.443       .  S
N257        O261   1.263       .  A
N257        O262   1.261       .  A
N260        O264   1.262       .  A
N260        O263   1.262       .  A
C265        C266   1.404       .  A
C265        C270   1.394       .  A
C265        H272   1.081       .  S
C266       C1659   1.422   1_455  A
C267        C268   1.409       .  A
C267       C1658   1.422       .  A
C267        N274   1.443       .  S
C268       C1661   1.401       .  A
C268        H273   1.083       .  S
C269        C270   1.404       .  A
C269       C1660   1.401   1_455  A
C270        N271   1.429       .  S
N271        O275   1.262       .  A
N271        O276   1.262       .  A
N274        O278   1.263       .  A
N274        O277   1.263       .  A
C279        C280   1.408   1_455  A
C279        C284   1.397       .  A
C279        H286   1.083       .  S
C280       C1673   1.420       .  A
C281        C282   1.406       .  A
C281       C1672   1.421       .  A
C281        N288   1.438       .  S
C282       C1675   1.400       .  A
C282        H287   1.084       .  S
C283        C284   1.403   1_655  A
C283       C1674   1.400       .  A
C284        N285   1.429       .  S
N285        O289   1.262       .  A
N285        O290   1.262       .  A
N288        O292   1.263       .  A
N288        O291   1.260       .  A
C293        C298   1.397       .  A
C293       C1686   1.405       .  A
C293        H300   1.084       .  S
C294        C295   1.414       .  A
C294       C1685   1.405   1_455  A
C295        C296   1.398       .  A
C295        N302   1.430       .  S
C296        C297   1.406       .  A
C296        H301   1.084       .  S
C297       C1690   1.414   1_455  A
C298       C1689   1.414       .  A
C298        N299   1.429       .  S
N299        O303   1.262       .  A
N299        O304   1.262       .  A
N302        O306   1.262       .  A
N302        O305   1.262       .  A
C307        C308   1.405       .  A
C307        C312   1.397       .  A
C307        H314   1.084       .  S
C308       C1701   1.414   1_455  A
C309        C310   1.397       .  A
C309       C1700   1.414       .  A
C309        N316   1.429       .  S
C310       C1703   1.405       .  A
C310        H315   1.084       .  S
C311        C312   1.414       .  A
C311       C1702   1.405   1_455  A
C312        N313   1.429       .  S
N313        O317   1.262       .  A
N313        O318   1.262       .  A
N316        O320   1.262       .  A
N316        O319   1.262       .  A
C321        C326   1.396       .  A
C321       C1714   1.407   1_554  A
C321        H328   1.083       .  S
C322       C1713   1.407   1_656  A
C322        C671   1.420       .  A
C323        C670   1.420       .  A
C323        C672   1.404       .  A
C323        N330   1.436       .  S
C324        C671   1.404       .  A
C324       C1717   1.400   1_556  A
C324        H329   1.084       .  S
C325        C326   1.404       .  A
C325       C1716   1.399   1_554  A
C326        N327   1.431       .  S
N327        O679   1.262       .  A
N327        O332   1.262       .  A
N330        O682   1.260       .  A
N330        O333   1.263       .  A
O331        N675   1.262       .  A
O334        N678   1.260       .  A
C335        C340   1.405       .  A
C335       C2076   1.399       .  A
C335        H342   1.084       .  S
C336        C337   1.406       .  A
C336       C2075   1.400   1_554  A
C337        C338   1.397       .  A
C337        N344   1.434       .  S
C338       C1731   1.404       .  A
C338        H343   1.083       .  S
C339       C1730   1.404   1_456  A
C339        C688   1.419       .  A
C340        C687   1.419       .  A
C340        N341   1.444       .  S
N341        O345   1.263       .  A
N341        O346   1.263       .  A
N344        O348   1.262       .  A
N344        O347   1.262       .  A
O349       Ni357   1.911       .  S
O349       C1751   1.280       .  A
O350       C1752   1.281       .  A
O351       Ni357   1.912       .  S
O351        C361   1.279       .  A
O353       C1754   1.280       .  A
O354       Ni358   1.917       .  S
O354       C1405   1.281   1_455  A
O355       Ni358   1.910   1_556  S
O355        C360   1.280       .  A
O356        C359   1.281       .  A
Ni357     Ni1402   2.388       .  S
Ni358     Ni1401   2.388   1_455  S
C359       O1741   1.280   1_455  A
C359        C656   1.483       .  S
C360       O1742   1.281   1_455  A
C360        C642   1.483       .  S
C361       O1398   1.281       .  A
C361        C673   1.467       .  S
C362       O1745   1.280       .  A
C362        C684   1.464       .  S
O363       Ni371   1.917       .  S
O363       C1765   1.280       .  A
O364       Ni371   1.917       .  S
O364       C1766   1.280       .  A
O365       Ni371   1.910       .  S
O365       C1767   1.281       .  A
O366       Ni371   1.911       .  S
O366       C1768   1.280       .  A
O367       Ni372   1.910       .  S
O367        C376   1.281       .  A
O368       Ni372   1.910       .  S
O368        C375   1.280       .  A
O369       Ni372   1.919       .  S
O369        C374   1.281   1_455  A
O370       Ni372   1.918       .  S
O370        C373   1.281       .  A
Ni371     Ni1764   2.387       .  S
Ni372     Ni1763   2.387   1_455  S
C373       O1755   1.280   1_455  A
C373        C617   1.469       .  S
C374       O1756   1.280       .  A
C374        C631   1.471       .  S
C375       O1757   1.281   1_455  A
C375        C659   1.483       .  S
C376       O1758   1.280   1_455  A
C376        C645   1.484       .  S
C377        C572   1.494       .  S
C377       C1770   1.412       .  A
C377       C1078   1.422       .  A
C378        C687   1.489   1_655  S
C378       C1769   1.412       .  A
C378       C1075   1.409   1_655  A
C379        C586   1.485       .  S
C379       C1074   1.410   1_445  A
C379        C380   1.410       .  A
C380        C558   1.490       .  S
C380        C381   1.417   1_455  A
C381        C670   1.499       .  S
C381       C1774   1.424   1_545  A
C382        C603   1.490       .  S
C382       C1073   1.422       .  A
C382       C1773   1.423   1_565  A
C383        C502   1.494       .  S
C383        C384   1.418   1_545  A
C383        C388   1.413       .  A
C384        C533   1.496       .  S
C384       C1081   1.422       .  A
C385        C628   1.502       .  S
C385       C1080   1.422   1_655  A
C385       C1778   1.426       .  A
C386        C516   1.503       .  S
C386       C1777   1.427       .  A
C386       C1083   1.426       .  A
C387        C544   1.496       .  S
C387       C1082   1.426   1_545  A
C387       C1780   1.420       .  A
C388        C614   1.498       .  S
C388       C1779   1.419   1_455  A
O389       Ni397   1.919       .  S
O389       C1095   1.283       .  A
O390       C1096   1.282       .  A
O391       Ni397   1.905       .  S
O391       C1097   1.278       .  A
O392        C750   1.278       .  A
O393        C402   1.280       .  A
O394       Ni398   1.914       .  S
O395       Ni398   1.909   1_556  S
O395        C400   1.280   1_545  A
O396        C399   1.279       .  A
Ni397      Ni746   2.391       .  S
Ni398      Ni745   2.391   1_545  S
C399       O1085   1.283   1_545  A
C399        C488   1.484       .  S
C400       O1086   1.282       .  A
C400        C477   1.478       .  S
C401       O1087   1.278       .  A
C401        C600   1.462       .  S
C402        O740   1.278   1_545  A
C402        C589   1.459       .  S
O403       Ni411   1.914       .  S
O403       C1109   1.281       .  A
O404       Ni411   1.914       .  S
O404       C1110   1.281       .  A
O405       Ni411   1.914       .  S
O405        C415   1.280       .  A
O406       Ni411   1.912       .  S
O406        C416   1.279       .  A
O407       Ni412   1.911       .  S
O407       C1112   1.280   1_545  A
O408       Ni412   1.916       .  S
O408       C1111   1.280       .  A
O409       Ni412   1.914       .  S
O409        C414   1.282       .  A
O410       Ni412   1.913       .  S
O410        C413   1.280       .  A
Ni411     Ni1108   2.389       .  S
Ni412     Ni1107   2.389   1_545  S
C413       O1099   1.282   1_545  A
C413        C474   1.482       .  S
C414       O1100   1.281   1_545  A
C414        C491   1.482   1_545  S
C415       O1104   1.280       .  A
C415       C1243   1.469       .  S
C416       O1103   1.279       .  A
C416        C530   1.463       .  S
O417       Ni425   1.911       .  S
O417        C427   1.278       .  A
O419        C429   1.281       .  A
O420       Ni425   1.915       .  S
O420        C430   1.281       .  A
O421       Ni426   1.910       .  S
O421        C430   1.281       .  A
O422        C429   1.281       .  A
O423       Ni426   1.914       .  S
O423        C428   1.280       .  A
Ni425      Ni426   2.389       .  S
C427        C561   1.461       .  S
C428        C575   1.466       .  S
C429        C446   1.484       .  S
C430        C463   1.482       .  S
O431       Ni439   1.913       .  S
O431        C441   1.280       .  A
O432       Ni439   1.913       .  S
O432        C442   1.280       .  A
O433       Ni439   1.910       .  S
O433        C443   1.281       .  A
O434       Ni439   1.910       .  S
O434        C444   1.281       .  A
O435       Ni440   1.914       .  S
O435        C444   1.281       .  A
O436       Ni440   1.914       .  S
O436        C443   1.281       .  A
O437       Ni440   1.916       .  S
O437        C442   1.281       .  A
O438       Ni440   1.915       .  S
O438        C441   1.279       .  A
Ni439      Ni440   2.389       .  S
C441        C505   1.464       .  S
C442        C519   1.469       .  S
C443        C460   1.483       .  S
C444        C449   1.483       .  S
C445        C446   1.406       .  A
C445        C450   1.398       .  A
C445        H452   1.084       .  S
C446        C447   1.413       .  A
C447        C448   1.398       .  A
C447        N454   1.429       .  S
C448        C449   1.406       .  A
C448        H453   1.084       .  S
C449        C450   1.413       .  A
C450        N451   1.429       .  S
N451        O455   1.262       .  A
N451        O456   1.262       .  A
N454        O458   1.262       .  A
N454        O457   1.262       .  A
C459        C460   1.406       .  A
C459        C464   1.398       .  A
C459        H466   1.084       .  S
C460        C461   1.413       .  A
C461        C462   1.399       .  A
C461        N468   1.430       .  S
C462        C463   1.406       .  A
C462        H467   1.084       .  S
C463        C464   1.412       .  A
C464        N465   1.430       .  S
N465        O469   1.262       .  A
N465        O470   1.262       .  A
N468        O472   1.262       .  A
N468        O471   1.262       .  A
C473       C1170   1.406       .  A
C473        C478   1.399       .  A
C473        H480   1.084       .  S
C474       C1169   1.406   1_545  A
C474        C475   1.416       .  A
C475        C476   1.399       .  A
C475        N482   1.432       .  S
C476        C477   1.403   1_545  A
C476        H481   1.084       .  S
C477       C1174   1.409       .  A
C478       C1173   1.409       .  A
C478        N479   1.429       .  S
N479        O483   1.262       .  A
N479        O484   1.262       .  A
N482        O486   1.262       .  A
N482        O485   1.262       .  A
C487       C1184   1.405       .  A
C487        C492   1.399       .  A
C487        H494   1.084       .  S
C488       C1183   1.405   1_545  A
C488        C489   1.415       .  A
C489        C490   1.399       .  A
C489        N496   1.430       .  S
C490        C491   1.404   1_545  A
C490        H495   1.084       .  S
C491       C1188   1.414       .  A
C492       C1187   1.414       .  A
C492        N493   1.431       .  S
N493        O497   1.262       .  A
N493        O498   1.262       .  A
N496        O500   1.261       .  A
N496        O499   1.262       .  A
C501        C502   1.406       .  A
C501        C506   1.397       .  A
C501        H508   1.082       .  S
C502        C503   1.416       .  A
C503        C504   1.404       .  A
C503        N510   1.437       .  S
C504        C505   1.400       .  A
C504        H509   1.084       .  S
C505        C506   1.403       .  A
C506        N507   1.431       .  S
N507        O511   1.262       .  A
N507        O512   1.262       .  A
N510        O514   1.263       .  A
N510        O513   1.262       .  A
C515        C516   1.409       .  A
C515        C520   1.400       .  A
C515        H522   1.083       .  S
C516        C517   1.421       .  A
C517        C518   1.402       .  A
C517        N524   1.436       .  S
C518        C519   1.399       .  A
C518        H523   1.084       .  S
C519        C520   1.408       .  A
C520        N521   1.436       .  S
N521        O525   1.263       .  A
N521        O526   1.263       .  A
N524        O528   1.263       .  A
N524        O527   1.260       .  A
C529       C1226   1.399       .  A
C529        C534   1.402       .  A
C529        H536   1.083       .  S
C530       C1225   1.399       .  A
C530        C531   1.402       .  A
C531        C532   1.394       .  A
C531        N538   1.429       .  S
C532       C1229   1.406       .  A
C532        H537   1.083       .  S
C533       C1228   1.406   1_565  A
C533        C534   1.418       .  A
C534        N535   1.435       .  S
N535        O539   1.263       .  A
N535        O540   1.260       .  A
N538        O542   1.262       .  A
N538        O541   1.262       .  A
C543        C544   1.407   1_565  A
C543        C548   1.396       .  A
C543        H550   1.083       .  S
C544       C1241   1.424       .  A
C545       C1240   1.424       .  A
C545        C546   1.406       .  A
C545        N552   1.445       .  S
C546       C1243   1.400       .  A
C546        H551   1.084       .  S
C547       C1111   1.469       .  S
C547       C1242   1.400       .  A
C547        C548   1.404   1_545  A
C548        N549   1.430       .  S
N549        O553   1.262       .  A
N549        O554   1.262       .  A
N552        O556   1.263       .  A
N552        O555   1.262       .  A
C557        C558   1.404       .  A
C557        C562   1.393       .  A
C557        H564   1.087       .  S
C559        C560   1.403       .  A
C559        N566   1.437       .  S
C560        H565   1.087       .  S
C561        C562   1.403       .  A
C562        N563   1.431       .  S
N563        O568   1.262       .  A
N566        O569   1.263       .  A
C571        C576   1.396       .  A
C571        H578   1.082       .  S
C572        C573   1.417       .  A
C573        C574   1.405       .  A
C573        N580   1.440       .  S
C574        C575   1.401       .  A
C574        H579   1.084       .  S
C576        N577   1.434       .  S
N577        O581   1.262       .  A
N580        O584   1.263       .  A
C585        C934   1.402       .  A
C585        C590   1.394       .  A
C585        H592   1.081       .  S
C586        C933   1.402       .  A
C586        C587   1.418   1_545  A
C587        C588   1.402       .  A
C587        N594   1.442       .  S
C588        C589   1.399   1_565  A
C588        H593   1.084       .  S
C589        C938   1.405       .  A
C590        C937   1.405       .  A
C590        N591   1.433       .  S
N591        O595   1.262       .  A
N591       O1292   1.262       .  A
N594        O598   1.262       .  A
N594       O1293   1.263       .  A
O596       N1287   1.262       .  A
O597       N1290   1.263       .  A
C599        C604   1.403       .  A
C599        H606   1.083       .  S
C600       C1297   1.402   1_565  A
C601       C1296   1.402       .  A
C601        C602   1.393       .  A
C601        N608   1.429       .  S
C602       C1299   1.406       .  A
C602        H607   1.083       .  S
C603       C1298   1.406   1_565  A
C604        N605   1.443       .  S
N605        O609   1.263       .  A
N605        O610   1.261       .  A
N608        O612   1.262       .  A
N608        O611   1.262       .  A
C613        C614   1.404       .  A
C613        C618   1.394       .  A
C613        H620   1.081       .  S
C614       C2007   1.422   1_455  A
C615       C2006   1.422       .  A
C615        C616   1.409       .  A
C615        N622   1.443       .  S
C616       C2009   1.401       .  A
C616        H621   1.083       .  S
C617       C2008   1.401   1_455  A
C617        C618   1.404       .  A
C618        N619   1.429       .  S
N619        O623   1.262       .  A
N619        O624   1.262       .  A
N622        O626   1.263       .  A
N622        O625   1.263       .  A
C627        C628   1.408   1_455  A
C627        C632   1.397       .  A
C627        H634   1.083       .  S
C628       C2021   1.421       .  A
C629       C2020   1.421       .  A
C629        C630   1.406       .  A
C629        N636   1.438       .  S
C630       C2023   1.400       .  A
C630        H635   1.084       .  S
C631       C2022   1.400       .  A
C631        C632   1.403   1_655  A
C632        N633   1.429       .  S
N633        O637   1.262       .  A
N633        O638   1.262       .  A
N636        O640   1.263       .  A
N636        O639   1.260       .  A
C641       C2034   1.405       .  A
C641        C646   1.397       .  A
C641        H648   1.084       .  S
C642       C2033   1.405   1_455  A
C642        C643   1.414       .  A
C643        C644   1.398       .  A
C643        N650   1.430       .  S
C644        C645   1.406       .  A
C644        H649   1.084       .  S
C645       C2038   1.414   1_455  A
C646       C2037   1.414       .  A
C646        N647   1.430       .  S
N647        O651   1.262       .  A
N647        O652   1.262       .  A
N650        O654   1.262       .  A
N650        O653   1.262       .  A
C655        C656   1.405       .  A
C655        C660   1.397       .  A
C655        H662   1.084       .  S
C656       C2049   1.414   1_455  A
C657       C2048   1.414       .  A
C657        C658   1.397       .  A
C657        N664   1.429       .  S
C658       C2051   1.405       .  A
C658        H663   1.084       .  S
C659       C2050   1.405   1_455  A
C659        C660   1.414       .  A
C660        N661   1.429       .  S
N661        O665   1.262       .  A
N661        O666   1.262       .  A
N664        O668   1.262       .  A
N664        O667   1.262       .  A
C669       C2062   1.407       .  A
C669        C674   1.396       .  A
C669        H676   1.083       .  S
C670       C2061   1.407   1_655  A
C671        N678   1.436       .  S
C672       C2065   1.400       .  A
C672        H677   1.084       .  S
C673       C2064   1.399       .  A
C673        C674   1.404       .  A
C674        N675   1.431       .  S
N675        O680   1.262       .  A
N678        O681   1.263       .  A
C683       C1728   1.400   1_556  A
C683        C688   1.405       .  A
C683        H690   1.084       .  S
C684       C1727   1.400       .  A
C684        C685   1.406       .  A
C685        C686   1.397       .  A
C685        N692   1.434       .  S
C686       C2079   1.404       .  A
C686        H691   1.083       .  S
C687       C2078   1.404   1_455  A
C688        N689   1.443       .  S
N689        O693   1.263       .  A
N689        O694   1.263       .  A
N692        O696   1.262       .  A
N692        O695   1.262       .  A
O697       Ni705   1.910       .  S
O697       C2099   1.280       .  A
O698      Ni1053   1.910       .  S
O698       C2100   1.281       .  A
O699       Ni705   1.913       .  S
O699        C709   1.279       .  A
O700      Ni1053   1.911       .  S
O700       C1058   1.279       .  A
O701      Ni1054   1.917       .  S
O701       C2102   1.280       .  A
O702       Ni706   1.918       .  S
O702       C2449   1.281   1_455  A
O703       Ni706   1.910       .  S
O703        C708   1.280       .  A
O704      Ni1054   1.909       .  S
O704        C707   1.281       .  A
Ni705      O1046   1.910   1_554  S
Ni705      O1048   1.911       .  S
Ni705     Ni2446   2.388       .  S
Ni706      O1049   1.918       .  S
Ni706      O1052   1.909       .  S
Ni706     Ni2445   2.388   1_455  S
C707       O2089   1.280   1_455  A
C707       C1004   1.483       .  S
C708       O2090   1.281   1_455  A
C708        C990   1.483       .  S
C709       O2442   1.281       .  A
C709       C1021   1.467       .  S
C710       O1048   1.279       .  A
C710       O2093   1.280       .  A
C710       C1032   1.464       .  S
O711       Ni719   1.917       .  S
O711       C2113   1.280       .  A
O712       Ni719   1.917       .  S
O712       C2114   1.280       .  A
O713       Ni719   1.910       .  S
O713       C2115   1.281       .  A
O714       Ni719   1.911       .  S
O714       C2116   1.280       .  A
O715       Ni720   1.911       .  S
O715        C724   1.281       .  A
O716       Ni720   1.911       .  S
O716        C723   1.280       .  A
O717       Ni720   1.919       .  S
O717        C722   1.281   1_455  A
O718       Ni720   1.918       .  S
O718        C721   1.281       .  A
Ni719     Ni2112   2.387       .  S
Ni720     Ni2111   2.387   1_455  S
C721       O2103   1.280   1_455  A
C721        C965   1.469       .  S
C722       O2104   1.280       .  A
C722        C979   1.470       .  S
C723       O2105   1.281   1_455  A
C723       C1007   1.482       .  S
C724       O2106   1.280   1_455  A
C724        C993   1.484       .  S
C725        C920   1.493       .  S
C725       C2118   1.412       .  A
C726       C1035   1.489   1_655  S
C726       C2117   1.412       .  A
C727        C934   1.485       .  S
C727        C728   1.410       .  A
C728        C906   1.490       .  S
C728        C729   1.417   1_455  A
C729       C1018   1.500       .  S
C729       C2122   1.424       .  A
C730        C951   1.490       .  S
C730       C2121   1.424       .  A
C731        C850   1.494       .  S
C731        C732   1.418       .  A
C731        C736   1.413       .  A
C732        C881   1.496       .  S
C733        C976   1.502       .  S
C733       C2126   1.426       .  A
C734        C864   1.503       .  S
C734       C2125   1.427       .  A
C735        C892   1.496       .  S
C735       C2128   1.420       .  A
C736        C962   1.498       .  S
C736       C2127   1.419   1_455  A
O737       Ni745   1.918       .  S
O738      Ni1093   1.919       .  S
O739       Ni745   1.905       .  S
O740      Ni1093   1.907       .  S
O741      Ni1094   1.914   1_556  S
O741        C750   1.280   1_556  A
O742       Ni746   1.914       .  S
O742       C1097   1.281       .  A
O743       Ni746   1.909       .  S
O743        C748   1.280       .  A
O744      Ni1094   1.909       .  S
O744        C747   1.279       .  A
Ni745      O1086   1.919   1_554  S
Ni745      O1088   1.907       .  S
Ni746      O1089   1.914       .  S
Ni746      O1092   1.909       .  S
C747        C836   1.484       .  S
C748        C825   1.478       .  S
C749       O1090   1.281       .  A
C749        C948   1.462       .  S
C750        C937   1.459   1_554  S
O751       Ni759   1.914       .  S
O752       Ni759   1.914       .  S
O753       Ni759   1.914       .  S
O753        C763   1.280   1_565  A
O754       Ni759   1.913       .  S
O754        C764   1.279       .  A
O755       Ni760   1.911       .  S
O756       Ni760   1.916       .  S
O757       Ni760   1.914       .  S
O757        C762   1.282       .  A
O758       Ni760   1.913       .  S
O758        C761   1.280       .  A
C761        C822   1.482       .  S
C762        C839   1.482       .  S
C764        C878   1.463       .  S
O765       Ni773   1.910       .  S
O765        C775   1.278       .  A
O766      Ni1121   1.912       .  S
O766       C1124   1.279       .  A
O767      Ni1121   1.915       .  S
O767        C777   1.281       .  A
O768       Ni773   1.915       .  S
O768        C778   1.281       .  A
O769       Ni774   1.910       .  S
O769        C778   1.281       .  A
O770      Ni1122   1.909       .  S
O770        C777   1.281       .  A
O771       Ni774   1.914       .  S
O771        C776   1.280       .  A
O772      Ni1122   1.911       .  S
O772       C1123   1.280       .  A
Ni773      O1114   1.911       .  S
Ni773      O1115   1.915   1_554  S
Ni773      Ni774   2.389       .  S
Ni774      O1118   1.909   1_554  S
Ni774      O1120   1.913       .  S
C775       O1120   1.280       .  A
C775        C909   1.461   1_554  S
C776       O1114   1.279       .  A
C776        C923   1.465       .  S
C777        C794   1.485       .  S
C778        C811   1.482       .  S
O779       Ni787   1.912       .  S
O779        C789   1.280       .  A
O780       Ni787   1.913       .  S
O780        C790   1.280       .  A
O781       Ni787   1.910       .  S
O781        C791   1.281       .  A
O782       Ni787   1.911       .  S
O782        C792   1.281       .  A
O783       Ni788   1.914       .  S
O783        C792   1.281       .  A
O784       Ni788   1.914       .  S
O784        C791   1.281       .  A
O785       Ni788   1.916       .  S
O785        C790   1.281       .  A
O786       Ni788   1.916       .  S
O786        C789   1.279       .  A
Ni787      Ni788   2.388       .  S
C789        C853   1.464       .  S
C790        C867   1.470       .  S
C791        C808   1.483       .  S
C792        C797   1.484       .  S
C793        C794   1.406       .  A
C793        C798   1.398       .  A
C793        H800   1.084       .  S
C794        C795   1.413       .  A
C795        C796   1.398       .  A
C795        N802   1.429       .  S
C796        C797   1.406       .  A
C796        H801   1.084       .  S
C797        C798   1.413       .  A
C798        N799   1.429       .  S
N799        O803   1.262       .  A
N799        O804   1.262       .  A
N802        O806   1.262       .  A
N802        O805   1.262       .  A
C807        C808   1.406       .  A
C807        C812   1.398       .  A
C807        H814   1.084       .  S
C808        C809   1.413       .  A
C809        C810   1.399       .  A
C809        N816   1.431       .  S
C810        C811   1.406       .  A
C810        H815   1.084       .  S
C811        C812   1.413       .  A
C812        N813   1.430       .  S
N813        O817   1.262       .  A
N813        O818   1.262       .  A
N816        O820   1.262       .  A
N816        O819   1.262       .  A
C821        C826   1.399       .  A
C821        H828   1.084       .  S
C822        C823   1.416       .  A
C823        C824   1.399       .  A
C823        N830   1.432       .  S
C824        C825   1.403       .  A
C824        H829   1.084       .  S
C826        N827   1.429       .  S
N827        O831   1.262       .  A
N827        O832   1.262       .  A
N830        O834   1.262       .  A
N830        O833   1.262       .  A
C835        C840   1.399       .  A
C835        H842   1.084       .  S
C836        C837   1.416       .  A
C837        C838   1.399       .  A
C837        N844   1.430       .  S
C838        C839   1.404       .  A
C838        H843   1.084       .  S
C840        N841   1.431       .  S
N841        O845   1.262       .  A
N841        O846   1.262       .  A
N844        O848   1.262       .  A
N844        O847   1.262       .  A
C849        C850   1.406       .  A
C849        C854   1.397       .  A
C849        H856   1.082       .  S
C850        C851   1.416       .  A
C851        C852   1.404       .  A
C851        N858   1.437       .  S
C852        C853   1.400       .  A
C852        H857   1.084       .  S
C853        C854   1.403       .  A
C854        N855   1.431       .  S
N855        O859   1.262       .  A
N855        O860   1.262       .  A
N858        O862   1.263       .  A
N858        O861   1.262       .  A
C863        C864   1.408       .  A
C863        C868   1.400       .  A
C863        H870   1.083       .  S
C864        C865   1.421       .  A
C865        C866   1.402       .  A
C865        N872   1.436       .  S
C866        C867   1.399       .  A
C866        H871   1.084       .  S
C867        C868   1.408       .  A
C868        N869   1.436       .  S
N869        O873   1.263       .  A
N869        O874   1.263       .  A
N872        O876   1.263       .  A
N872        O875   1.260       .  A
C877        C882   1.402       .  A
C877        H884   1.083       .  S
C878        C879   1.402   1_565  A
C879        C880   1.394       .  A
C879        N886   1.429       .  S
C880        H885   1.083       .  S
C881        C882   1.417       .  A
C882        N883   1.435       .  S
N883        O887   1.263       .  A
N883        O888   1.260       .  A
N886        O890   1.262       .  A
N886        O889   1.262       .  A
C891        C892   1.407       .  A
C891        C896   1.396       .  A
C891        H898   1.083       .  S
C893        C894   1.406       .  A
C893        N900   1.444       .  S
C894        H899   1.084       .  S
C895        C896   1.404       .  A
C896        N897   1.430       .  S
N897        O901   1.262       .  A
N897        O902   1.262       .  A
N900        O904   1.263       .  A
N900        O903   1.262       .  A
C905        C906   1.404   1_554  A
C905        C910   1.393       .  A
C905        H912   1.088       .  S
C906       C1255   1.416       .  A
C907       C1254   1.417       .  A
C907        C908   1.402       .  A
C907        N914   1.437       .  S
C908       C1257   1.399       .  A
C908        H913   1.091       .  S
C909       C1256   1.399       .  A
C909        C910   1.403   1_556  A
C910        N911   1.430       .  S
N911       O1263   1.262       .  A
N911        O916   1.262       .  A
N914       O1266   1.262       .  A
N914        O917   1.263       .  A
O915       N1259   1.262       .  A
O918       N1262   1.262       .  A
C919       C1268   1.405       .  A
C919        C924   1.396       .  A
C919        H926   1.082       .  S
C920       C1267   1.405   1_554  A
C920        C921   1.417       .  A
C921        C922   1.404       .  A
C921        N928   1.440       .  S
C922        C923   1.401       .  A
C922        H927   1.084       .  S
C923       C1272   1.406   1_554  A
C924       C1271   1.406       .  A
C924        N925   1.434       .  S
N925        O929   1.262       .  A
N925       O1278   1.262       .  A
N928        O932   1.263       .  A
N928       O1279   1.263       .  A
O930       N1273   1.262       .  A
O931       N1276   1.263       .  A
C933        C938   1.394       .  A
C933        H940   1.081       .  S
C934        C935   1.418   1_556  A
C935        C936   1.402       .  A
C935        N942   1.442       .  S
C936        C937   1.399   1_554  A
C936        H941   1.084       .  S
C938        N939   1.432       .  S
N939        O943   1.262   1_545  A
N942        O946   1.262       .  A
C947       C1296   1.398       .  A
C947        C952   1.403       .  A
C947        H954   1.083       .  S
C948       C1295   1.398   1_554  A
C949        C950   1.393       .  A
C949        N956   1.429       .  S
C950        H955   1.083       .  S
C951       C1300   1.423       .  A
C952       C1299   1.423       .  A
C952        N953   1.443       .  S
N953        O957   1.263       .  A
N953        O958   1.261       .  A
N956        O960   1.262       .  A
N956        O959   1.262       .  A
C961        C962   1.404       .  A
C961        C966   1.394       .  A
C961        H968   1.081       .  S
C962       C2355   1.421   1_455  A
C963       C2354   1.422       .  A
C963        C964   1.409       .  A
C963        N970   1.443       .  S
C964       C2357   1.401       .  A
C964        H969   1.083       .  S
C965       C2356   1.401   1_455  A
C965        C966   1.404       .  A
C966        N967   1.429       .  S
N967        O971   1.262       .  A
N967        O972   1.262       .  A
N970        O974   1.263       .  A
N970        O973   1.263       .  A
C975        C976   1.408   1_455  A
C975        C980   1.397       .  A
C975        H982   1.083       .  S
C976       C2369   1.420       .  A
C977       C2368   1.421       .  A
C977        C978   1.406       .  A
C977        N984   1.438       .  S
C978       C2371   1.400       .  A
C978        H983   1.084       .  S
C979       C2370   1.400       .  A
C979        C980   1.403   1_655  A
C980        N981   1.429       .  S
N981        O985   1.262       .  A
N981        O986   1.262       .  A
N984        O988   1.263       .  A
N984        O987   1.260       .  A
C989       C2382   1.405       .  A
C989        C994   1.397       .  A
C989        H996   1.084       .  S
C990       C2381   1.405   1_455  A
C990        C991   1.414       .  A
C991        C992   1.398       .  A
C991        N998   1.430       .  S
C992        C993   1.406       .  A
C992        H997   1.084       .  S
C993       C2386   1.414   1_455  A
C994       C2385   1.414       .  A
C994        N995   1.429       .  S
N995        O999   1.262       .  A
N995       O1000   1.262       .  A
N998       O1002   1.262       .  A
N998       O1001   1.262       .  A
C1003      C1004   1.406       .  A
C1003      C1008   1.397       .  A
C1003      H1010   1.084       .  S
C1004      C2397   1.414   1_455  A
C1005      C2396   1.414       .  A
C1005      C1006   1.397       .  A
C1005      N1012   1.429       .  S
C1006      C2399   1.405       .  A
C1006      H1011   1.084       .  S
C1007      C2398   1.405   1_455  A
C1007      C1008   1.414       .  A
C1008      N1009   1.429       .  S
N1009      O1013   1.262       .  A
N1009      O1014   1.262       .  A
N1012      O1016   1.262       .  A
N1012      O1015   1.262       .  A
C1017      C2410   1.407   1_554  A
C1017      C1022   1.396       .  A
C1017      H1024   1.083       .  S
C1018      C2409   1.407   1_656  A
C1018      C1367   1.420       .  A
C1019      C1366   1.420       .  A
C1019      C1368   1.404       .  A
C1019      N1026   1.436       .  S
C1020      C1367   1.404       .  A
C1020      C2413   1.400   1_556  A
C1020      H1025   1.084       .  S
C1021      C2412   1.399   1_554  A
C1021      C1022   1.404       .  A
C1022      N1023   1.432       .  S
N1023      O1375   1.262       .  A
N1023      O1028   1.262       .  A
N1026      O1378   1.260       .  A
N1026      O1029   1.263       .  A
O1027      N1371   1.262       .  A
O1030      N1374   1.260       .  A
C1031      C2772   1.400       .  A
C1031      C1036   1.405       .  A
C1031      H1038   1.084       .  S
C1032      C2771   1.400   1_554  A
C1032      C1033   1.406       .  A
C1033      C1034   1.397       .  A
C1033      N1040   1.434       .  S
C1034      C2427   1.404       .  A
C1034      H1039   1.083       .  S
C1035      C2426   1.404   1_456  A
C1035      C1384   1.419       .  A
C1036      C1383   1.419       .  A
C1036      N1037   1.443       .  S
N1037      O1041   1.263       .  A
N1037      O1042   1.263       .  A
N1040      O1044   1.262       .  A
N1040      O1043   1.262       .  A
O1045     Ni1053   1.911       .  S
O1045      C2447   1.280       .  A
O1046      C2448   1.281       .  A
O1047     Ni1053   1.913       .  S
O1047      C1057   1.279       .  A
O1049      C2450   1.280       .  A
O1050     Ni1054   1.916       .  S
O1050      C2101   1.281   1_455  A
O1051     Ni1054   1.910   1_556  S
O1051      C1056   1.280       .  A
O1052      C1055   1.281       .  A
Ni1053    Ni2098   2.388       .  S
Ni1054    Ni2097   2.388   1_455  S
C1055      O2437   1.280   1_455  A
C1055      C1352   1.483       .  S
C1056      O2438   1.282   1_455  A
C1056      C1338   1.483       .  S
C1057      O2094   1.281       .  A
C1057      C1369   1.467       .  S
C1058      O2441   1.280       .  A
C1058      C1380   1.465       .  S
O1059     Ni1067   1.916       .  S
O1059      C2461   1.280       .  A
O1060     Ni1067   1.916       .  S
O1060      C2462   1.280       .  A
O1061     Ni1067   1.910       .  S
O1061      C2463   1.281       .  A
O1062     Ni1067   1.911       .  S
O1062      C2464   1.280       .  A
O1063     Ni1068   1.910       .  S
O1063      C1072   1.281       .  A
O1064     Ni1068   1.910       .  S
O1064      C1071   1.280       .  A
O1065     Ni1068   1.918       .  S
O1065      C1070   1.281   1_455  A
O1066     Ni1068   1.918       .  S
O1066      C1069   1.281       .  A
Ni1067    Ni2460   2.387       .  S
Ni1068    Ni2459   2.387   1_455  S
C1069      O2451   1.280   1_455  A
C1069      C1313   1.469       .  S
C1070      O2452   1.280       .  A
C1070      C1327   1.471       .  S
C1071      O2453   1.281   1_455  A
C1071      C1355   1.482       .  S
C1072      O2454   1.280   1_455  A
C1072      C1341   1.484       .  S
C1073      C1268   1.494       .  S
C1073      C2466   1.412       .  A
C1074      C1383   1.490   1_655  S
C1074      C2465   1.413       .  A
C1075      C1282   1.485       .  S
C1075      C1076   1.410       .  A
C1076      C1254   1.489       .  S
C1076      C1077   1.417   1_455  A
C1077      C1366   1.501       .  S
C1077      C2470   1.424       .  A
C1078      C1299   1.490       .  S
C1078      C2469   1.424       .  A
C1079      C1198   1.495       .  S
C1079      C1080   1.418       .  A
C1079      C1084   1.413       .  A
C1080      C1229   1.496       .  S
C1081      C1324   1.502   1_455  S
C1081      C2474   1.426   1_455  A
C1082      C1212   1.503       .  S
C1082      C2473   1.427       .  A
C1083      C1240   1.495       .  S
C1083      C2476   1.419       .  A
C1084      C1310   1.498       .  S
C1084      C2475   1.419   1_455  A
O1085     Ni1093   1.918       .  S
O1087     Ni1093   1.905       .  S
O1089      C1098   1.280       .  A
O1090     Ni1094   1.914       .  S
O1091     Ni1094   1.909   1_556  S
O1091      C1096   1.280       .  A
O1092      C1095   1.279       .  A
C1095      C1184   1.484       .  S
C1096      C1173   1.478       .  S
C1097      C1296   1.462       .  S
C1098      C1285   1.460       .  S
O1099     Ni1107   1.914       .  S
O1100     Ni1107   1.914       .  S
O1101     Ni1107   1.914       .  S
O1101      C1111   1.280   1_565  A
O1102     Ni1107   1.913       .  S
O1102      C1112   1.279       .  A
O1103     Ni1108   1.911       .  S
O1104     Ni1108   1.915       .  S
O1105     Ni1108   1.915       .  S
O1105      C1110   1.282       .  A
O1106     Ni1108   1.914       .  S
O1106      C1109   1.280       .  A
C1109      C1170   1.482       .  S
C1110      C1187   1.482       .  S
C1112      C1226   1.463       .  S
O1113     Ni1121   1.911       .  S
O1113      C1123   1.278       .  A
O1115      C1125   1.282       .  A
O1116     Ni1121   1.915       .  S
O1116      C1126   1.281       .  A
O1117     Ni1122   1.910       .  S
O1117      C1126   1.281       .  A
O1118      C1125   1.280       .  A
O1119     Ni1122   1.913       .  S
O1119      C1124   1.280       .  A
Ni1121    Ni1122   2.389       .  S
C1123      C1257   1.460       .  S
C1124      C1271   1.465       .  S
C1125      C1142   1.482       .  S
C1126      C1159   1.482       .  S
O1127     Ni1135   1.913       .  S
O1127      C1137   1.280       .  A
O1128     Ni1135   1.913       .  S
O1128      C1138   1.280       .  A
O1129     Ni1135   1.911       .  S
O1129      C1139   1.281       .  A
O1130     Ni1135   1.911       .  S
O1130      C1140   1.281       .  A
O1131     Ni1136   1.914       .  S
O1131      C1140   1.281       .  A
O1132     Ni1136   1.914       .  S
O1132      C1139   1.281       .  A
O1133     Ni1136   1.917       .  S
O1133      C1138   1.281       .  A
O1134     Ni1136   1.916       .  S
O1134      C1137   1.280       .  A
Ni1135    Ni1136   2.389       .  S
C1137      C1201   1.465       .  S
C1138      C1215   1.470       .  S
C1139      C1156   1.483       .  S
C1140      C1145   1.481       .  S
C1141      C1142   1.406       .  A
C1141      C1146   1.398       .  A
C1141      H1148   1.084       .  S
C1142      C1143   1.413       .  A
C1143      C1144   1.398       .  A
C1143      N1150   1.430       .  S
C1144      C1145   1.405       .  A
C1144      H1149   1.084       .  S
C1145      C1146   1.412       .  A
C1146      N1147   1.430       .  S
N1147      O1151   1.262       .  A
N1147      O1152   1.262       .  A
N1150      O1154   1.262       .  A
N1150      O1153   1.262       .  A
C1155      C1156   1.406       .  A
C1155      C1160   1.398       .  A
C1155      H1162   1.084       .  S
C1156      C1157   1.414       .  A
C1157      C1158   1.399       .  A
C1157      N1164   1.431       .  S
C1158      C1159   1.406       .  A
C1158      H1163   1.084       .  S
C1159      C1160   1.413       .  A
C1160      N1161   1.430       .  S
N1161      O1165   1.262       .  A
N1161      O1166   1.262       .  A
N1164      O1168   1.262       .  A
N1164      O1167   1.262       .  A
C1169      C1174   1.400       .  A
C1169      H1176   1.084       .  S
C1170      C1171   1.416       .  A
C1171      C1172   1.399       .  A
C1171      N1178   1.432       .  S
C1172      C1173   1.403       .  A
C1172      H1177   1.084       .  S
C1174      N1175   1.429       .  S
N1175      O1179   1.262       .  A
N1175      O1180   1.262       .  A
N1178      O1182   1.262       .  A
N1178      O1181   1.262       .  A
C1183      C1188   1.399       .  A
C1183      H1190   1.084       .  S
C1184      C1185   1.416       .  A
C1185      C1186   1.399       .  A
C1185      N1192   1.430       .  S
C1186      C1187   1.404       .  A
C1186      H1191   1.084       .  S
C1188      N1189   1.431       .  S
N1189      O1193   1.262       .  A
N1189      O1194   1.262       .  A
N1192      O1196   1.262       .  A
N1192      O1195   1.262       .  A
C1197      C1198   1.406       .  A
C1197      C1202   1.397       .  A
C1197      H1204   1.082       .  S
C1198      C1199   1.416       .  A
C1199      C1200   1.404       .  A
C1199      N1206   1.437       .  S
C1200      C1201   1.400       .  A
C1200      H1205   1.084       .  S
C1201      C1202   1.404       .  A
C1202      N1203   1.431       .  S
N1203      O1207   1.262       .  A
N1203      O1208   1.262       .  A
N1206      O1210   1.263       .  A
N1206      O1209   1.262       .  A
C1211      C1212   1.409       .  A
C1211      C1216   1.400       .  A
C1211      H1218   1.083       .  S
C1212      C1213   1.421       .  A
C1213      C1214   1.402       .  A
C1213      N1220   1.436       .  S
C1214      C1215   1.399       .  A
C1214      H1219   1.084       .  S
C1215      C1216   1.408       .  A
C1216      N1217   1.436       .  S
N1217      O1221   1.263       .  A
N1217      O1222   1.263       .  A
N1220      O1224   1.263       .  A
N1220      O1223   1.260       .  A
C1225      C1230   1.402       .  A
C1225      H1232   1.083       .  S
C1226      C1227   1.402   1_565  A
C1227      C1228   1.394       .  A
C1227      N1234   1.430       .  S
C1228      H1233   1.083       .  S
C1229      C1230   1.418       .  A
C1230      N1231   1.435       .  S
N1231      O1235   1.263       .  A
N1231      O1236   1.260       .  A
N1234      O1238   1.262       .  A
N1234      O1237   1.262       .  A
C1239      C1240   1.407       .  A
C1239      C1244   1.396       .  A
C1239      H1246   1.083       .  S
C1241      C1242   1.406       .  A
C1241      N1248   1.444       .  S
C1242      H1247   1.084       .  S
C1243      C1244   1.404       .  A
C1244      N1245   1.430       .  S
N1245      O1249   1.262       .  A
N1245      O1250   1.262       .  A
N1248      O1252   1.263       .  A
N1248      O1251   1.262       .  A
C1253      C1254   1.402       .  A
C1253      C1258   1.392       .  A
C1253      H1260   1.098       .  S
C1255      C1256   1.403       .  A
C1255      N1262   1.437       .  S
C1256      H1261   1.087       .  S
C1257      C1258   1.404       .  A
C1258      N1259   1.431       .  S
N1259      O1264   1.262       .  A
N1262      O1265   1.263       .  A
C1267      C1272   1.395       .  A
C1267      H1274   1.082       .  S
C1268      C1269   1.417       .  A
C1269      C1270   1.404       .  A
C1269      N1276   1.441       .  S
C1270      C1271   1.401       .  A
C1270      H1275   1.084       .  S
C1272      N1273   1.434       .  S
N1273      O1277   1.262       .  A
N1276      O1280   1.263       .  A
C1281      C1286   1.395       .  A
C1281      H1288   1.081       .  S
C1282      C1283   1.417       .  A
C1283      C1284   1.402       .  A
C1283      N1290   1.441       .  S
C1284      C1285   1.399       .  A
C1284      H1289   1.084       .  S
C1286      N1287   1.432       .  S
N1287      O1291   1.262   1_545  A
N1290      O1294   1.262       .  A
C1295      C1300   1.403       .  A
C1295      H1302   1.083       .  S
C1297      C1298   1.393       .  A
C1297      N1304   1.430       .  S
C1298      H1303   1.083       .  S
C1300      N1301   1.443       .  S
N1301      O1305   1.263       .  A
N1301      O1306   1.261       .  A
N1304      O1308   1.262       .  A
N1304      O1307   1.262       .  A
C1309      C1310   1.404       .  A
C1309      C1314   1.394       .  A
C1309      H1316   1.082       .  S
C1310      C2703   1.422   1_455  A
C1311      C2702   1.422       .  A
C1311      C1312   1.409       .  A
C1311      N1318   1.443       .  S
C1312      C2705   1.401       .  A
C1312      H1317   1.083       .  S
C1313      C2704   1.401   1_455  A
C1313      C1314   1.404       .  A
C1314      N1315   1.429       .  S
N1315      O1319   1.262       .  A
N1315      O1320   1.262       .  A
N1318      O1322   1.263       .  A
N1318      O1321   1.263       .  A
C1323      C1324   1.408   1_455  A
C1323      C1328   1.397       .  A
C1323      H1330   1.083       .  S
C1324      C2717   1.420       .  A
C1325      C2716   1.421       .  A
C1325      C1326   1.406       .  A
C1325      N1332   1.438       .  S
C1326      C2719   1.400       .  A
C1326      H1331   1.084       .  S
C1327      C2718   1.400       .  A
C1327      C1328   1.403   1_655  A
C1328      N1329   1.429       .  S
N1329      O1333   1.262       .  A
N1329      O1334   1.262       .  A
N1332      O1336   1.263       .  A
N1332      O1335   1.260       .  A
C1337      C2730   1.405       .  A
C1337      C1342   1.397       .  A
C1337      H1344   1.084       .  S
C1338      C2729   1.405   1_455  A
C1338      C1339   1.414       .  A
C1339      C1340   1.398       .  A
C1339      N1346   1.430       .  S
C1340      C1341   1.406       .  A
C1340      H1345   1.084       .  S
C1341      C2734   1.414   1_455  A
C1342      C2733   1.414       .  A
C1342      N1343   1.429       .  S
N1343      O1347   1.262       .  A
N1343      O1348   1.262       .  A
N1346      O1350   1.262       .  A
N1346      O1349   1.262       .  A
C1351      C1352   1.406       .  A
C1351      C1356   1.397       .  A
C1351      H1358   1.084       .  S
C1352      C2745   1.414   1_455  A
C1353      C2744   1.414       .  A
C1353      C1354   1.397       .  A
C1353      N1360   1.429       .  S
C1354      C2747   1.405       .  A
C1354      H1359   1.084       .  S
C1355      C2746   1.405   1_455  A
C1355      C1356   1.414       .  A
C1356      N1357   1.429       .  S
N1357      O1361   1.262       .  A
N1357      O1362   1.262       .  A
N1360      O1364   1.262       .  A
N1360      O1363   1.262       .  A
C1365      C2758   1.407       .  A
C1365      C1370   1.396       .  A
C1365      H1372   1.083       .  S
C1366      C2757   1.407   1_655  A
C1367      N1374   1.436       .  S
C1368      C2761   1.400       .  A
C1368      H1373   1.084       .  S
C1369      C2760   1.399       .  A
C1369      C1370   1.404       .  A
C1370      N1371   1.432       .  S
N1371      O1376   1.262       .  A
N1374      O1377   1.263       .  A
C1379      C2424   1.400   1_556  A
C1379      C1384   1.405       .  A
C1379      H1386   1.084       .  S
C1380      C2423   1.400       .  A
C1380      C1381   1.406       .  A
C1381      C1382   1.397       .  A
C1381      N1388   1.434       .  S
C1382      C2775   1.404       .  A
C1382      H1387   1.083       .  S
C1383      C2774   1.404   1_455  A
C1384      N1385   1.443       .  S
N1385      O1389   1.263       .  A
N1385      O1390   1.263       .  A
N1388      O1392   1.262       .  A
N1388      O1391   1.262       .  A
O1393     Ni1401   1.910       .  S
O1394     Ni1749   1.910       .  S
O1395     Ni1401   1.913       .  S
O1395      C1405   1.279       .  A
O1396     Ni1749   1.910       .  S
O1396      C1754   1.279   1_655  A
O1397     Ni1750   1.916       .  S
O1398     Ni1402   1.916       .  S
O1399     Ni1402   1.910       .  S
O1399      C1404   1.280       .  A
O1400     Ni1750   1.909       .  S
O1400      C1403   1.281       .  A
Ni1401     O1742   1.910   1_554  S
Ni1401     O1744   1.911       .  S
Ni1402     O1745   1.917       .  S
Ni1402     O1748   1.909       .  S
C1403      C1700   1.483       .  S
C1404      C1686   1.483       .  S
C1405      C1717   1.468       .  S
C1406      O1744   1.279   1_455  A
C1406      C1728   1.465       .  S
O1407     Ni1415   1.916       .  S
O1408     Ni1415   1.916       .  S
O1409     Ni1415   1.910       .  S
O1410     Ni1415   1.911       .  S
O1411     Ni1416   1.911       .  S
O1411      C1420   1.281       .  A
O1412     Ni1416   1.910       .  S
O1412      C1419   1.280       .  A
O1413     Ni1416   1.919       .  S
O1413      C1418   1.281       .  A
O1414     Ni1416   1.918       .  S
O1414      C1417   1.281       .  A
C1417      C1661   1.470       .  S
C1418      C1675   1.472       .  S
C1419      C1703   1.482       .  S
C1420      C1689   1.484       .  S
C1421      C1616   1.492   1_556  S
C1421      C2122   1.422       .  A
C1422      C1731   1.489   1_556  S
C1422      C2119   1.410       .  A
C1423      C1630   1.485   1_556  S
C1423      C2118   1.410   1_546  A
C1423      C1424   1.410       .  A
C1424      C1602   1.490       .  S
C1424      C1425   1.417       .  A
C1425      C1714   1.500       .  S
C1426      C1647   1.491       .  S
C1426      C2117   1.422       .  A
C1427      C1546   1.496       .  S
C1427      C1428   1.419   1_545  A
C1427      C1432   1.414       .  A
C1428      C1577   1.497       .  S
C1428      C2125   1.423       .  A
C1429      C1672   1.503       .  S
C1429      C2124   1.423       .  A
C1430      C1560   1.502       .  S
C1430      C2127   1.426       .  A
C1431      C1588   1.495       .  S
C1431      C2126   1.426   1_545  A
C1432      C1658   1.498       .  S
O1433     Ni1441   1.917       .  S
O1433      C2139   1.283       .  A
O1434     Ni1789   1.918       .  S
O1434      C2140   1.282       .  A
O1435     Ni1441   1.908   1_556  S
O1435      C2141   1.278       .  A
O1436     Ni1789   1.906       .  S
O1436      C2490   1.277       .  A
O1437     Ni1790   1.913       .  S
O1437      C1446   1.280   1_556  A
O1438     Ni1442   1.914       .  S
O1438      C1793   1.281   1_545  A
O1439     Ni1442   1.908       .  S
O1439      C1444   1.280   1_545  A
O1440     Ni1790   1.909   1_554  S
O1440      C1443   1.279       .  A
Ni1441     O1782   1.917   1_554  S
Ni1441     O1784   1.907       .  S
Ni1441    Ni2486   2.390   1_554  S
Ni1442     O1785   1.913       .  S
Ni1442     O1788   1.908       .  S
Ni1442    Ni2485   2.389   1_545  S
C1443      O2129   1.283   1_545  A
C1443      C1532   1.484       .  S
C1444      O2130   1.281       .  A
C1444      C1521   1.480       .  S
C1445      O2131   1.278       .  A
C1445      O1786   1.281   1_565  A
C1445      C1644   1.463       .  S
C1446      O2480   1.278   1_545  A
C1446      C1633   1.459       .  S
O1447     Ni1455   1.911       .  S
O1447      C2153   1.281       .  A
O1448     Ni1455   1.910       .  S
O1448      C2154   1.280       .  A
O1449     Ni1455   1.913       .  S
O1449      C1459   1.280       .  A
O1450     Ni1455   1.913       .  S
O1450      C1460   1.279       .  A
O1451     Ni1456   1.910       .  S
O1451      C2156   1.279   1_545  A
O1452     Ni1456   1.914       .  S
O1452      C2155   1.280       .  A
O1453     Ni1456   1.915       .  S
O1453      C1458   1.282       .  A
O1454     Ni1456   1.914       .  S
O1454      C1457   1.280       .  A
Ni1455    Ni2152   2.389       .  S
Ni1456    Ni2151   2.388   1_545  S
C1457      O2143   1.281   1_545  A
C1457      C1518   1.482       .  S
C1458      O2144   1.280   1_545  A
C1458      C1535   1.482   1_545  S
C1459      O2148   1.280       .  A
C1459      C2287   1.468       .  S
C1460      O2147   1.279       .  A
C1460      C1574   1.462       .  S
O1461     Ni1469   1.909       .  S
O1461      C1471   1.277       .  A
O1462     Ni1817   1.909       .  S
O1462      C1820   1.279       .  A
O1463     Ni1817   1.917       .  S
O1463      C1473   1.282       .  A
O1464     Ni1469   1.917       .  S
O1464      C1474   1.282       .  A
O1465     Ni1470   1.910       .  S
O1465      C1474   1.280       .  A
O1466     Ni1818   1.908       .  S
O1466      C1473   1.280       .  A
O1467     Ni1470   1.915       .  S
O1467      C1472   1.281       .  A
O1468     Ni1818   1.914       .  S
O1468      C1819   1.280       .  A
Ni1469     O1810   1.908       .  S
Ni1469     O1811   1.917   1_554  S
Ni1469    Ni1470   2.390       .  S
Ni1470     O1814   1.908   1_554  S
Ni1470     O1816   1.914       .  S
C1471      O1816   1.281       .  A
C1471      C1605   1.461       .  S
C1472      O1810   1.278       .  A
C1472      C1619   1.464       .  S
C1473      C1490   1.481       .  S
C1474      C1507   1.484       .  S
O1475     Ni1483   1.913       .  S
O1475      C1485   1.280       .  A
O1476     Ni1483   1.913       .  S
O1476      C1486   1.280       .  A
O1477     Ni1483   1.912       .  S
O1477      C1487   1.281       .  A
O1478     Ni1483   1.912       .  S
O1478      C1488   1.281       .  A
O1479     Ni1484   1.915       .  S
O1479      C1488   1.281       .  A
O1480     Ni1484   1.915       .  S
O1480      C1487   1.281       .  A
O1481     Ni1484   1.918       .  S
O1481      C1486   1.281       .  A
O1482     Ni1484   1.918       .  S
O1482      C1485   1.280       .  A
Ni1483    Ni1484   2.389       .  S
C1485      C1549   1.465       .  S
C1486      C1563   1.470       .  S
C1487      C1504   1.481       .  S
C1488      C1493   1.484       .  S
C1489      C1490   1.405       .  A
C1489      C1494   1.397       .  A
C1489      H1496   1.084       .  S
C1490      C1491   1.412       .  A
C1491      C1492   1.400       .  A
C1491      N1498   1.431       .  S
C1492      C1493   1.407       .  A
C1492      H1497   1.084       .  S
C1493      C1494   1.414       .  A
C1494      N1495   1.430       .  S
N1495      O1499   1.262       .  A
N1495      O1500   1.262       .  A
N1498      O1502   1.262       .  A
N1498      O1501   1.262       .  A
C1503      C1504   1.404       .  A
C1503      C1508   1.399       .  A
C1503      H1510   1.084       .  S
C1504      C1505   1.412       .  A
C1505      C1506   1.399       .  A
C1505      N1512   1.430       .  S
C1506      C1507   1.406       .  A
C1506      H1511   1.084       .  S
C1507      C1508   1.413       .  A
C1508      N1509   1.431       .  S
N1509      O1513   1.262       .  A
N1509      O1514   1.262       .  A
N1512      O1516   1.262       .  A
N1512      O1515   1.262       .  A
C1517      C2214   1.406       .  A
C1517      C1522   1.398       .  A
C1517      H1524   1.084       .  S
C1518      C2213   1.406   1_545  A
C1518      C1519   1.415       .  A
C1519      C1520   1.399       .  A
C1519      N1526   1.431       .  S
C1520      C1521   1.405   1_545  A
C1520      H1525   1.084       .  S
C1521      C2218   1.411       .  A
C1522      C2217   1.410       .  A
C1522      N1523   1.429       .  S
N1523      O1527   1.262       .  A
N1523      O1528   1.262       .  A
N1526      O1530   1.262       .  A
N1526      O1529   1.262       .  A
C1531      C2228   1.404       .  A
C1531      C1536   1.398       .  A
C1531      H1538   1.084       .  S
C1532      C2227   1.404   1_545  A
C1532      C1533   1.415       .  A
C1533      C1534   1.399       .  A
C1533      N1540   1.430       .  S
C1534      C1535   1.404   1_545  A
C1534      H1539   1.084       .  S
C1535      C2232   1.414       .  A
C1536      C2231   1.414       .  A
C1536      N1537   1.432       .  S
N1537      O1541   1.262       .  A
N1537      O1542   1.262       .  A
N1540      O1544   1.261       .  A
N1540      O1543   1.262       .  A
C1545      C1546   1.407       .  A
C1545      C1550   1.398       .  A
C1545      H1552   1.082       .  S
C1546      C1547   1.416       .  A
C1547      C1548   1.404       .  A
C1547      N1554   1.437       .  S
C1548      C1549   1.400       .  A
C1548      H1553   1.084       .  S
C1549      C1550   1.404       .  A
C1550      N1551   1.430       .  S
N1551      O1555   1.262       .  A
N1551      O1556   1.262       .  A
N1554      O1558   1.263       .  A
N1554      O1557   1.262       .  A
C1559      C1560   1.408       .  A
C1559      C1564   1.399       .  A
C1559      H1566   1.083       .  S
C1560      C1561   1.421       .  A
C1561      C1562   1.403       .  A
C1561      N1568   1.436       .  S
C1562      C1563   1.399       .  A
C1562      H1567   1.084       .  S
C1563      C1564   1.406       .  A
C1564      N1565   1.434       .  S
N1565      O1569   1.263       .  A
N1565      O1570   1.262       .  A
N1568      O1572   1.263       .  A
N1568      O1571   1.260       .  A
C1573      C2270   1.399       .  A
C1573      C1578   1.403       .  A
C1573      H1580   1.084       .  S
C1574      C2269   1.399       .  A
C1574      C1575   1.403       .  A
C1575      C1576   1.394       .  A
C1575      N1582   1.431       .  S
C1576      C2273   1.406       .  A
C1576      H1581   1.083       .  S
C1577      C2272   1.406   1_565  A
C1577      C1578   1.418       .  A
C1578      N1579   1.434       .  S
N1579      O1583   1.263       .  A
N1579      O1584   1.260       .  A
N1582      O1586   1.262       .  A
N1582      O1585   1.262       .  A
C1587      C1588   1.407   1_565  A
C1587      C1592   1.396       .  A
C1587      H1594   1.083       .  S
C1588      C2285   1.423       .  A
C1589      C2284   1.424       .  A
C1589      C1590   1.405       .  A
C1589      N1596   1.444       .  S
C1590      C2287   1.399       .  A
C1590      H1595   1.084       .  S
C1591      C2155   1.468       .  S
C1591      C2286   1.400       .  A
C1591      C1592   1.403   1_545  A
C1592      N1593   1.430       .  S
N1593      O1597   1.262       .  A
N1593      O1598   1.262       .  A
N1596      O1600   1.263       .  A
N1596      O1599   1.262       .  A
C1601      C1602   1.405   1_554  A
C1601      C1606   1.395       .  A
C1601      H1608   1.085       .  S
C1602      C1951   1.416       .  A
C1603      C1950   1.416       .  A
C1603      C1604   1.403       .  A
C1603      N1610   1.437       .  S
C1604      C1953   1.399       .  A
C1604      H1609   1.087       .  S
C1605      C1952   1.399   1_554  A
C1605      C1606   1.403       .  A
C1606      N1607   1.432       .  S
N1607      O1959   1.262       .  A
N1607      O1612   1.262       .  A
N1610      O1962   1.262       .  A
N1610      O1613   1.263       .  A
O1611      N1955   1.262       .  A
O1614      N1958   1.262       .  A
C1615      C1964   1.406       .  A
C1615      C1620   1.396       .  A
C1615      H1622   1.082       .  S
C1616      C1963   1.406   1_554  A
C1616      C1617   1.417       .  A
C1617      C1618   1.403       .  A
C1617      N1624   1.440       .  S
C1618      C1619   1.401       .  A
C1618      H1623   1.084       .  S
C1619      C1968   1.405   1_554  A
C1620      C1967   1.406       .  A
C1620      N1621   1.433       .  S
N1621      O1625   1.262       .  A
N1621      O1974   1.262       .  A
N1624      O1628   1.263       .  A
N1624      O1975   1.263       .  A
O1626      N1969   1.262       .  A
O1627      N1972   1.263       .  A
C1629      C2674   1.403       .  A
C1629      C1634   1.394       .  A
C1629      H1636   1.080       .  S
C1630      C2673   1.402   1_554  A
C1630      C1631   1.418   1_545  A
C1631      C1632   1.402       .  A
C1631      N1638   1.442       .  S
C1632      C1633   1.399   1_565  A
C1632      H1637   1.084       .  S
C1633      C2678   1.404   1_554  A
C1634      C2677   1.404       .  A
C1634      N1635   1.432       .  S
N1635      O1639   1.262       .  A
N1635      O2336   1.262       .  A
N1638      O1642   1.262       .  A
N1638      O2337   1.263       .  A
O1640      N2331   1.262       .  A
O1641      N2334   1.263       .  A
C1643      C1992   1.399       .  A
C1643      C1648   1.404       .  A
C1643      H1650   1.084       .  S
C1644      C1991   1.399       .  A
C1644      C2341   1.402   1_566  A
C1645      C2340   1.402   1_554  A
C1645      C1646   1.393       .  A
C1645      N1652   1.430       .  S
C1646      C2343   1.405   1_554  A
C1646      H1651   1.083       .  S
C1647      C2342   1.405   1_566  A
C1647      C1996   1.423       .  A
C1648      C1995   1.423       .  A
C1648      N1649   1.443       .  S
N1649      O1653   1.263       .  A
N1649      O1654   1.261       .  A
N1652      O1656   1.262       .  A
N1652      O1655   1.262       .  A
C1657      C1658   1.404       .  A
C1657      C1662   1.394       .  A
C1657      H1664   1.081       .  S
C1659      C1660   1.409       .  A
C1659      N1666   1.443       .  S
C1660      H1665   1.084       .  S
C1661      C1662   1.404       .  A
C1662      N1663   1.429       .  S
N1663      O1667   1.262       .  A
N1663      O1668   1.262       .  A
N1666      O1670   1.263       .  A
N1666      O1669   1.263       .  A
C1671      C1672   1.409       .  A
C1671      C1676   1.398       .  A
C1671      H1678   1.083       .  S
C1673      C1674   1.406       .  A
C1673      N1680   1.437       .  S
C1674      H1679   1.084       .  S
C1675      C1676   1.404       .  A
C1676      N1677   1.430       .  S
N1677      O1681   1.262       .  A
N1677      O1682   1.262       .  A
N1680      O1684   1.263       .  A
N1680      O1683   1.260       .  A
C1685      C1690   1.397       .  A
C1685      H1692   1.084       .  S
C1686      C1687   1.414       .  A
C1687      C1688   1.398       .  A
C1687      N1694   1.430       .  S
C1688      C1689   1.406       .  A
C1688      H1693   1.084       .  S
C1690      N1691   1.429       .  S
N1691      O1695   1.262       .  A
N1691      O1696   1.262       .  A
N1694      O1698   1.262       .  A
N1694      O1697   1.262       .  A
C1699      C1700   1.405       .  A
C1699      C1704   1.397       .  A
C1699      H1706   1.084       .  S
C1701      C1702   1.397       .  A
C1701      N1708   1.429       .  S
C1702      H1707   1.084       .  S
C1703      C1704   1.414       .  A
C1704      N1705   1.429       .  S
N1705      O1709   1.262       .  A
N1705      O1710   1.262       .  A
N1708      O1712   1.262       .  A
N1708      O1711   1.262       .  A
C1713      C1718   1.396       .  A
C1713      H1720   1.083       .  S
C1714      C2063   1.420       .  A
C1715      C2062   1.420       .  A
C1715      C2064   1.404       .  A
C1715      N1722   1.436       .  S
C1716      C2063   1.404       .  A
C1716      H1721   1.084       .  S
C1717      C1718   1.404   1_655  A
C1718      N1719   1.431       .  S
N1719      O2071   1.262       .  A
N1719      O1724   1.262       .  A
N1722      O2074   1.260       .  A
N1722      O1725   1.263       .  A
O1723      N2067   1.262       .  A
O1726      N2070   1.260       .  A
C1727      C1732   1.405       .  A
C1727      H1734   1.084       .  S
C1728      C1729   1.406   1_455  A
C1729      C1730   1.398       .  A
C1729      N1736   1.434       .  S
C1730      H1735   1.083       .  S
C1731      C2080   1.419   1_554  A
C1732      C2079   1.419       .  A
C1732      N1733   1.443       .  S
N1733      O1737   1.263       .  A
N1733      O1738   1.263       .  A
N1736      O1740   1.262       .  A
N1736      O1739   1.262   1_655  A
O1741     Ni1749   1.910       .  S
O1743     Ni1749   1.912       .  S
O1743      C1753   1.279       .  A
O1746     Ni1750   1.915       .  S
O1747     Ni1750   1.910   1_556  S
O1747      C1752   1.280       .  A
O1748      C1751   1.281       .  A
C1751      C2048   1.483       .  S
C1752      C2034   1.483       .  S
C1753      C2065   1.467       .  S
C1754      C2076   1.464       .  S
O1755     Ni1763   1.916       .  S
O1756     Ni1763   1.916       .  S
O1757     Ni1763   1.910       .  S
O1758     Ni1763   1.911       .  S
O1759     Ni1764   1.911       .  S
O1759      C1768   1.281       .  A
O1760     Ni1764   1.911       .  S
O1760      C1767   1.280       .  A
O1761     Ni1764   1.919       .  S
O1761      C1766   1.281       .  A
O1762     Ni1764   1.918       .  S
O1762      C1765   1.281       .  A
C1765      C2009   1.470       .  S
C1766      C2023   1.472       .  S
C1767      C2051   1.482       .  S
C1768      C2037   1.484       .  S
C1769      C1964   1.493       .  S
C1769      C2470   1.422       .  A
C1770      C2079   1.489       .  S
C1770      C2467   1.410       .  A
C1771      C1978   1.484       .  S
C1771      C2466   1.410   1_545  A
C1771      C1772   1.411       .  A
C1772      C1950   1.490       .  S
C1772      C1773   1.417       .  A
C1773      C2062   1.499       .  S
C1774      C1995   1.493       .  S
C1774      C2465   1.422       .  A
C1775      C1894   1.496       .  S
C1775      C1776   1.419   1_545  A
C1775      C1780   1.414       .  A
C1776      C1925   1.497       .  S
C1776      C2473   1.423       .  A
C1777      C2020   1.504       .  S
C1777      C2472   1.423       .  A
C1778      C1908   1.502       .  S
C1778      C2475   1.426       .  A
C1779      C1936   1.494       .  S
C1779      C2474   1.426   1_545  A
C1780      C2006   1.498       .  S
O1781     Ni1789   1.917       .  S
O1781      C2487   1.283       .  A
O1782      C2488   1.282       .  A
O1783     Ni1789   1.906       .  S
O1783      C2489   1.278       .  A
O1784      C2142   1.278       .  A
O1785      C1794   1.280       .  A
O1786     Ni1790   1.913       .  S
O1787     Ni1790   1.909       .  S
O1787      C1792   1.280   1_545  A
O1788      C1791   1.279       .  A
Ni1789    Ni2138   2.390       .  S
Ni1790    Ni2137   2.390   1_546  S
C1791      O2477   1.283   1_545  A
C1791      C1880   1.486       .  S
C1792      O2478   1.282       .  A
C1792      C1869   1.480       .  S
C1793      O2479   1.278       .  A
C1793      C1992   1.463       .  S
C1794      O2132   1.278   1_545  A
C1794      C1981   1.459       .  S
O1795     Ni1803   1.910       .  S
O1795      C2501   1.281       .  A
O1796     Ni1803   1.910       .  S
O1796      C2502   1.280       .  A
O1797     Ni1803   1.913       .  S
O1797      C1807   1.280       .  A
O1798     Ni1803   1.912       .  S
O1798      C1808   1.279       .  A
O1799     Ni1804   1.910       .  S
O1799      C2504   1.279   1_545  A
O1800     Ni1804   1.914       .  S
O1800      C2503   1.280       .  A
O1801     Ni1804   1.916       .  S
O1801      C1806   1.282       .  A
O1802     Ni1804   1.915       .  S
O1802      C1805   1.280       .  A
Ni1803    Ni2500   2.389       .  S
Ni1804    Ni2499   2.388   1_545  S
C1805      O2491   1.281   1_545  A
C1805      C1866   1.482       .  S
C1806      O2492   1.280   1_545  A
C1806      C1883   1.486   1_545  S
C1807      O2496   1.280       .  A
C1807      C2635   1.468       .  S
C1808      O2495   1.279       .  A
C1808      C1922   1.462       .  S
O1809     Ni1817   1.910       .  S
O1809      C1819   1.278       .  A
O1811      C1821   1.282       .  A
O1812     Ni1817   1.917       .  S
O1812      C1822   1.282       .  A
O1813     Ni1818   1.910       .  S
O1813      C1822   1.280       .  A
O1814      C1821   1.280       .  A
O1815     Ni1818   1.915       .  S
O1815      C1820   1.281       .  A
Ni1817    Ni1818   2.390       .  S
C1819      C1953   1.461       .  S
C1820      C1967   1.465       .  S
C1821      C1838   1.480       .  S
C1822      C1855   1.484       .  S
O1823     Ni1831   1.912       .  S
O1823      C1833   1.279       .  A
O1824     Ni1831   1.913       .  S
O1824      C1834   1.279       .  A
O1825     Ni1831   1.911       .  S
O1825      C1835   1.281       .  A
O1826     Ni1831   1.912       .  S
O1826      C1836   1.281       .  A
O1827     Ni1832   1.916       .  S
O1827      C1836   1.281       .  A
O1828     Ni1832   1.916       .  S
O1828      C1835   1.281       .  A
O1829     Ni1832   1.918       .  S
O1829      C1834   1.281       .  A
O1830     Ni1832   1.918       .  S
O1830      C1833   1.280       .  A
Ni1831    Ni1832   2.389       .  S
C1833      C1897   1.465       .  S
C1834      C1911   1.470       .  S
C1835      C1852   1.482       .  S
C1836      C1841   1.484       .  S
C1837      C1838   1.405       .  A
C1837      C1842   1.398       .  A
C1837      H1844   1.084       .  S
C1838      C1839   1.412       .  A
C1839      C1840   1.399       .  A
C1839      N1846   1.431       .  S
C1840      C1841   1.407       .  A
C1840      H1845   1.084       .  S
C1841      C1842   1.414       .  A
C1842      N1843   1.430       .  S
N1843      O1847   1.262       .  A
N1843      O1848   1.262       .  A
N1846      O1850   1.262       .  A
N1846      O1849   1.262       .  A
C1851      C1852   1.404       .  A
C1851      C1856   1.399       .  A
C1851      H1858   1.084       .  S
C1852      C1853   1.412       .  A
C1853      C1854   1.400       .  A
C1853      N1860   1.430       .  S
C1854      C1855   1.407       .  A
C1854      H1859   1.084       .  S
C1855      C1856   1.413       .  A
C1856      N1857   1.431       .  S
N1857      O1861   1.262       .  A
N1857      O1862   1.262       .  A
N1860      O1864   1.262       .  A
N1860      O1863   1.262       .  A
C1865      C2562   1.406       .  A
C1865      C1870   1.398       .  A
C1865      H1872   1.084       .  S
C1866      C2561   1.406   1_545  A
C1866      C1867   1.415       .  A
C1867      C1868   1.399       .  A
C1867      N1874   1.431       .  S
C1868      C1869   1.404   1_545  A
C1868      H1873   1.084       .  S
C1869      C2566   1.411       .  A
C1870      C2565   1.412       .  A
C1870      N1871   1.429       .  S
N1871      O1875   1.262       .  A
N1871      O1876   1.262       .  A
N1874      O1878   1.262       .  A
N1874      O1877   1.262       .  A
C1879      C2576   1.404       .  A
C1879      C1884   1.398       .  A
C1879      H1886   1.084       .  S
C1880      C2575   1.404   1_545  A
C1880      C1881   1.416       .  A
C1881      C1882   1.400       .  A
C1881      N1888   1.431       .  S
C1882      C1883   1.405   1_545  A
C1882      H1887   1.084       .  S
C1883      C2580   1.415       .  A
C1884      C2579   1.414       .  A
C1884      N1885   1.432       .  S
N1885      O1889   1.262       .  A
N1885      O1890   1.262       .  A
N1888      O1892   1.262       .  A
N1888      O1891   1.262       .  A
C1893      C1894   1.407       .  A
C1893      C1898   1.398       .  A
C1893      H1900   1.082       .  S
C1894      C1895   1.416       .  A
C1895      C1896   1.404       .  A
C1895      N1902   1.437       .  S
C1896      C1897   1.400       .  A
C1896      H1901   1.084       .  S
C1897      C1898   1.404       .  A
C1898      N1899   1.430       .  S
N1899      O1903   1.262       .  A
N1899      O1904   1.262       .  A
N1902      O1906   1.263       .  A
N1902      O1905   1.262       .  A
C1907      C1908   1.408       .  A
C1907      C1912   1.399       .  A
C1907      H1914   1.083       .  S
C1908      C1909   1.421       .  A
C1909      C1910   1.403       .  A
C1909      N1916   1.436       .  S
C1910      C1911   1.399       .  A
C1910      H1915   1.084       .  S
C1911      C1912   1.406       .  A
C1912      N1913   1.434       .  S
N1913      O1917   1.263       .  A
N1913      O1918   1.262       .  A
N1916      O1920   1.263       .  A
N1916      O1919   1.260       .  A
C1921      C2618   1.399       .  A
C1921      C1926   1.403       .  A
C1921      H1928   1.084       .  S
C1922      C2617   1.399       .  A
C1922      C1923   1.403       .  A
C1923      C1924   1.394       .  A
C1923      N1930   1.431       .  S
C1924      C2621   1.406       .  A
C1924      H1929   1.083       .  S
C1925      C2620   1.406   1_565  A
C1925      C1926   1.419       .  A
C1926      N1927   1.434       .  S
N1927      O1931   1.263       .  A
N1927      O1932   1.260       .  A
N1930      O1934   1.262       .  A
N1930      O1933   1.262       .  A
C1935      C1936   1.407   1_565  A
C1935      C1940   1.396       .  A
C1935      H1942   1.083       .  S
C1936      C2633   1.423       .  A
C1937      C2632   1.423       .  A
C1937      C1938   1.405       .  A
C1937      N1944   1.444       .  S
C1938      C2635   1.400       .  A
C1938      H1943   1.084       .  S
C1939      C2503   1.467       .  S
C1939      C2634   1.399       .  A
C1939      C1940   1.403   1_545  A
C1940      N1941   1.430       .  S
N1941      O1945   1.262       .  A
N1941      O1946   1.262       .  A
N1944      O1948   1.263       .  A
N1944      O1947   1.262       .  A
C1949      C1950   1.404       .  A
C1949      C1954   1.395       .  A
C1949      H1956   1.088       .  S
C1951      C1952   1.403       .  A
C1951      N1958   1.437       .  S
C1952      H1957   1.086       .  S
C1953      C1954   1.403       .  A
C1954      N1955   1.433       .  S
N1955      O1960   1.262       .  A
N1958      O1961   1.263       .  A
C1963      C1968   1.395       .  A
C1963      H1970   1.082       .  S
C1964      C1965   1.417       .  A
C1965      C1966   1.404       .  A
C1965      N1972   1.440       .  S
C1966      C1967   1.401       .  A
C1966      H1971   1.084       .  S
C1968      N1969   1.432       .  S
N1969      O1973   1.262       .  A
N1972      O1976   1.263       .  A
C1977      C2326   1.402   1_556  A
C1977      C1982   1.394       .  A
C1977      H1984   1.080       .  S
C1978      C2325   1.402       .  A
C1978      C1979   1.417   1_545  A
C1979      C1980   1.402       .  A
C1979      N1986   1.441       .  S
C1980      C1981   1.399   1_565  A
C1980      H1985   1.084       .  S
C1981      C2330   1.405       .  A
C1982      C2329   1.404   1_556  A
C1982      N1983   1.432       .  S
N1983      O1987   1.262       .  A
N1983      O2684   1.262       .  A
N1986      O1990   1.262       .  A
N1986      O2685   1.263       .  A
O1988      N2679   1.262       .  A
O1989      N2682   1.263       .  A
C1991      C1996   1.404       .  A
C1991      H1998   1.084       .  S
C1992      C2689   1.402   1_565  A
C1993      C2688   1.402       .  A
C1993      C1994   1.392       .  A
C1993      N2000   1.430       .  S
C1994      C2691   1.405       .  A
C1994      H1999   1.083       .  S
C1995      C2690   1.407   1_565  A
C1996      N1997   1.443       .  S
N1997      O2001   1.263       .  A
N1997      O2002   1.261       .  A
N2000      O2004   1.262       .  A
N2000      O2003   1.262       .  A
C2005      C2006   1.404       .  A
C2005      C2010   1.394       .  A
C2005      H2012   1.081       .  S
C2007      C2008   1.409       .  A
C2007      N2014   1.443       .  S
C2008      H2013   1.084       .  S
C2009      C2010   1.404       .  A
C2010      N2011   1.429       .  S
N2011      O2015   1.262       .  A
N2011      O2016   1.262       .  A
N2014      O2018   1.263       .  A
N2014      O2017   1.262       .  A
C2019      C2020   1.409       .  A
C2019      C2024   1.398       .  A
C2019      H2026   1.083       .  S
C2021      C2022   1.406       .  A
C2021      N2028   1.438       .  S
C2022      H2027   1.084       .  S
C2023      C2024   1.404       .  A
C2024      N2025   1.430       .  S
N2025      O2029   1.262       .  A
N2025      O2030   1.262       .  A
N2028      O2032   1.263       .  A
N2028      O2031   1.260       .  A
C2033      C2038   1.397       .  A
C2033      H2040   1.084       .  S
C2034      C2035   1.414       .  A
C2035      C2036   1.398       .  A
C2035      N2042   1.430       .  S
C2036      C2037   1.406       .  A
C2036      H2041   1.084       .  S
C2038      N2039   1.430       .  S
N2039      O2043   1.262       .  A
N2039      O2044   1.262       .  A
N2042      O2046   1.262       .  A
N2042      O2045   1.262       .  A
C2047      C2048   1.406       .  A
C2047      C2052   1.397       .  A
C2047      H2054   1.084       .  S
C2049      C2050   1.397       .  A
C2049      N2056   1.429       .  S
C2050      H2055   1.084       .  S
C2051      C2052   1.414       .  A
C2052      N2053   1.429       .  S
N2053      O2057   1.262       .  A
N2053      O2058   1.262       .  A
N2056      O2060   1.262       .  A
N2056      O2059   1.262       .  A
C2061      C2066   1.396       .  A
C2061      H2068   1.083       .  S
C2063      N2070   1.436       .  S
C2064      H2069   1.084       .  S
C2065      C2066   1.404   1_655  A
C2066      N2067   1.431       .  S
N2067      O2072   1.262       .  A
N2070      O2073   1.263       .  A
C2075      C2080   1.405       .  A
C2075      H2082   1.084       .  S
C2076      C2077   1.406   1_455  A
C2077      C2078   1.398       .  A
C2077      N2084   1.434       .  S
C2078      H2083   1.083       .  S
C2080      N2081   1.443       .  S
N2081      O2085   1.263       .  A
N2081      O2086   1.263       .  A
N2084      O2088   1.262       .  A
N2084      O2087   1.262   1_655  A
O2089     Ni2097   1.911       .  S
O2090     Ni2445   1.910       .  S
O2091     Ni2097   1.913       .  S
O2091      C2101   1.279       .  A
O2092     Ni2445   1.911       .  S
O2092      C2450   1.279   1_655  A
O2093     Ni2446   1.917       .  S
O2094     Ni2098   1.915       .  S
O2095     Ni2098   1.910       .  S
O2095      C2100   1.280       .  A
O2096     Ni2446   1.909       .  S
O2096      C2099   1.281       .  A
Ni2097     O2438   1.911   1_554  S
Ni2097     O2440   1.911       .  S
Ni2098     O2441   1.916       .  S
Ni2098     O2444   1.909       .  S
C2099      C2396   1.483       .  S
C2100      C2382   1.483       .  S
C2101      C2413   1.467       .  S
C2102      O2440   1.279   1_455  A
C2102      C2424   1.465       .  S
O2103     Ni2111   1.916       .  S
O2104     Ni2111   1.916       .  S
O2105     Ni2111   1.910       .  S
O2106     Ni2111   1.911       .  S
O2107     Ni2112   1.910       .  S
O2107      C2116   1.281       .  A
O2108     Ni2112   1.910       .  S
O2108      C2115   1.280       .  A
O2109     Ni2112   1.918       .  S
O2109      C2114   1.281       .  A
O2110     Ni2112   1.918       .  S
O2110      C2113   1.281       .  A
C2113      C2357   1.470       .  S
C2114      C2371   1.471       .  S
C2115      C2399   1.482       .  S
C2116      C2385   1.484       .  S
C2117      C2312   1.493   1_556  S
C2118      C2427   1.489       .  S
C2119      C2326   1.485   1_556  S
C2119      C2120   1.411       .  A
C2120      C2298   1.491       .  S
C2120      C2121   1.417       .  A
C2121      C2410   1.500       .  S
C2122      C2343   1.492       .  S
C2123      C2242   1.497       .  S
C2123      C2124   1.419       .  A
C2123      C2128   1.414       .  A
C2124      C2273   1.497       .  S
C2125      C2368   1.503       .  S
C2126      C2256   1.502       .  S
C2127      C2284   1.494       .  S
C2128      C2354   1.498       .  S
O2129     Ni2137   1.915       .  S
O2130     Ni2485   1.916       .  S
O2131     Ni2137   1.907   1_556  S
O2132     Ni2485   1.907       .  S
O2133     Ni2486   1.914       .  S
O2133      C2142   1.280   1_556  A
O2134     Ni2138   1.914       .  S
O2134      C2489   1.281       .  A
O2135     Ni2138   1.908       .  S
O2135      C2140   1.280       .  A
O2136     Ni2486   1.909   1_554  S
O2136      C2139   1.279       .  A
Ni2137     O2478   1.916   1_554  S
Ni2137     O2480   1.907       .  S
Ni2138     O2481   1.914       .  S
Ni2138     O2484   1.908       .  S
C2139      C2228   1.484       .  S
C2140      C2217   1.480       .  S
C2141      O2482   1.281       .  A
C2141      C2340   1.464       .  S
C2142      C2329   1.460       .  S
O2143     Ni2151   1.910       .  S
O2144     Ni2151   1.909       .  S
O2145     Ni2151   1.913       .  S
O2145      C2155   1.280   1_565  A
O2146     Ni2151   1.913       .  S
O2146      C2156   1.279       .  A
O2147     Ni2152   1.910       .  S
O2148     Ni2152   1.914       .  S
O2149     Ni2152   1.915       .  S
O2149      C2154   1.282       .  A
O2150     Ni2152   1.915       .  S
O2150      C2153   1.280       .  A
C2153      C2214   1.483       .  S
C2154      C2231   1.481       .  S
C2156      C2270   1.463       .  S
O2157     Ni2165   1.910       .  S
O2157      C2167   1.278       .  A
O2158     Ni2513   1.908       .  S
O2158      C2516   1.278       .  A
O2159     Ni2513   1.917       .  S
O2159      C2169   1.282       .  A
O2160     Ni2165   1.917       .  S
O2160      C2170   1.282       .  A
O2161     Ni2166   1.910       .  S
O2161      C2170   1.280       .  A
O2162     Ni2514   1.909       .  S
O2162      C2169   1.280       .  A
O2163     Ni2166   1.915       .  S
O2163      C2168   1.281       .  A
O2164     Ni2514   1.914       .  S
O2164      C2515   1.281       .  A
Ni2165     O2506   1.909       .  S
Ni2165     O2507   1.917   1_554  S
Ni2165    Ni2166   2.390       .  S
Ni2166     O2510   1.908   1_554  S
Ni2166     O2512   1.914       .  S
C2167      O2512   1.280       .  A
C2167      C2301   1.461       .  S
C2168      O2506   1.279       .  A
C2168      C2315   1.465       .  S
C2169      C2186   1.480       .  S
C2170      C2203   1.483       .  S
O2171     Ni2179   1.912       .  S
O2171      C2181   1.279       .  A
O2172     Ni2179   1.913       .  S
O2172      C2182   1.280       .  A
O2173     Ni2179   1.912       .  S
O2173      C2183   1.281       .  A
O2174     Ni2179   1.913       .  S
O2174      C2184   1.281       .  A
O2175     Ni2180   1.915       .  S
O2175      C2184   1.281       .  A
O2176     Ni2180   1.915       .  S
O2176      C2183   1.281       .  A
O2177     Ni2180   1.918       .  S
O2177      C2182   1.281       .  A
O2178     Ni2180   1.918       .  S
O2178      C2181   1.280       .  A
Ni2179    Ni2180   2.389       .  S
C2181      C2245   1.465       .  S
C2182      C2259   1.470       .  S
C2183      C2200   1.481       .  S
C2184      C2189   1.484       .  S
C2185      C2186   1.405       .  A
C2185      C2190   1.398       .  A
C2185      H2192   1.084       .  S
C2186      C2187   1.412       .  A
C2187      C2188   1.400       .  A
C2187      N2194   1.431       .  S
C2188      C2189   1.407       .  A
C2188      H2193   1.084       .  S
C2189      C2190   1.414       .  A
C2190      N2191   1.430       .  S
N2191      O2195   1.262       .  A
N2191      O2196   1.262       .  A
N2194      O2198   1.262       .  A
N2194      O2197   1.262       .  A
C2199      C2200   1.404       .  A
C2199      C2204   1.399       .  A
C2199      H2206   1.084       .  S
C2200      C2201   1.412       .  A
C2201      C2202   1.400       .  A
C2201      N2208   1.430       .  S
C2202      C2203   1.406       .  A
C2202      H2207   1.084       .  S
C2203      C2204   1.413       .  A
C2204      N2205   1.431       .  S
N2205      O2209   1.262       .  A
N2205      O2210   1.262       .  A
N2208      O2212   1.262       .  A
N2208      O2211   1.262       .  A
C2213      C2218   1.397       .  A
C2213      H2220   1.084       .  S
C2214      C2215   1.415       .  A
C2215      C2216   1.399       .  A
C2215      N2222   1.432       .  S
C2216      C2217   1.404       .  A
C2216      H2221   1.084       .  S
C2218      N2219   1.429       .  S
N2219      O2223   1.262       .  A
N2219      O2224   1.262       .  A
N2222      O2226   1.262       .  A
N2222      O2225   1.262       .  A
C2227      C2232   1.398       .  A
C2227      H2234   1.084       .  S
C2228      C2229   1.416       .  A
C2229      C2230   1.399       .  A
C2229      N2236   1.430       .  S
C2230      C2231   1.404       .  A
C2230      H2235   1.084       .  S
C2232      N2233   1.431       .  S
N2233      O2237   1.262       .  A
N2233      O2238   1.262       .  A
N2236      O2240   1.262       .  A
N2236      O2239   1.262       .  A
C2241      C2242   1.407       .  A
C2241      C2246   1.398       .  A
C2241      H2248   1.082       .  S
C2242      C2243   1.416       .  A
C2243      C2244   1.404       .  A
C2243      N2250   1.437       .  S
C2244      C2245   1.400       .  A
C2244      H2249   1.084       .  S
C2245      C2246   1.404       .  A
C2246      N2247   1.430       .  S
N2247      O2251   1.262       .  A
N2247      O2252   1.262       .  A
N2250      O2254   1.263       .  A
N2250      O2253   1.262       .  A
C2255      C2256   1.408       .  A
C2255      C2260   1.399       .  A
C2255      H2262   1.083       .  S
C2256      C2257   1.421       .  A
C2257      C2258   1.403       .  A
C2257      N2264   1.436       .  S
C2258      C2259   1.399       .  A
C2258      H2263   1.084       .  S
C2259      C2260   1.406       .  A
C2260      N2261   1.434       .  S
N2261      O2265   1.263       .  A
N2261      O2266   1.262       .  A
N2264      O2268   1.263       .  A
N2264      O2267   1.260       .  A
C2269      C2274   1.402       .  A
C2269      H2276   1.083       .  S
C2270      C2271   1.403   1_565  A
C2271      C2272   1.394       .  A
C2271      N2278   1.431       .  S
C2272      H2277   1.083       .  S
C2273      C2274   1.418       .  A
C2274      N2275   1.434       .  S
N2275      O2279   1.263       .  A
N2275      O2280   1.260       .  A
N2278      O2282   1.262       .  A
N2278      O2281   1.262       .  A
C2283      C2284   1.407       .  A
C2283      C2288   1.396       .  A
C2283      H2290   1.083       .  S
C2285      C2286   1.405       .  A
C2285      N2292   1.444       .  S
C2286      H2291   1.084       .  S
C2287      C2288   1.403       .  A
C2288      N2289   1.430       .  S
N2289      O2293   1.262       .  A
N2289      O2294   1.262       .  A
N2292      O2296   1.263       .  A
N2292      O2295   1.262       .  A
C2297      C2298   1.405   1_554  A
C2297      C2302   1.395       .  A
C2297      H2304   1.086       .  S
C2298      C2647   1.416       .  A
C2299      C2646   1.416       .  A
C2299      C2300   1.402       .  A
C2299      N2306   1.437       .  S
C2300      C2649   1.399       .  A
C2300      H2305   1.085       .  S
C2301      C2648   1.399   1_554  A
C2301      C2302   1.403       .  A
C2302      N2303   1.433       .  S
N2303      O2655   1.262       .  A
N2303      O2308   1.262       .  A
N2306      O2658   1.262       .  A
N2306      O2309   1.263       .  A
O2307      N2651   1.262       .  A
O2310      N2654   1.262       .  A
C2311      C2660   1.406       .  A
C2311      C2316   1.395       .  A
C2311      H2318   1.082       .  S
C2312      C2659   1.406   1_554  A
C2312      C2313   1.417       .  A
C2313      C2314   1.404       .  A
C2313      N2320   1.440       .  S
C2314      C2315   1.400       .  A
C2314      H2319   1.084       .  S
C2315      C2664   1.406   1_554  A
C2316      C2663   1.405       .  A
C2316      N2317   1.432       .  S
N2317      O2321   1.262       .  A
N2317      O2670   1.262       .  A
N2320      O2324   1.263       .  A
N2320      O2671   1.263       .  A
O2322      N2665   1.262       .  A
O2323      N2668   1.263       .  A
C2325      C2330   1.394       .  A
C2325      H2332   1.080       .  S
C2326      C2327   1.418       .  A
C2327      C2328   1.403       .  A
C2327      N2334   1.442       .  S
C2328      C2329   1.399       .  A
C2328      H2333   1.084       .  S
C2330      N2331   1.433       .  S
N2331      O2335   1.262   1_545  A
N2334      O2338   1.262       .  A
C2339      C2688   1.399       .  A
C2339      C2344   1.404       .  A
C2339      H2346   1.084       .  S
C2340      C2687   1.399       .  A
C2341      C2342   1.392       .  A
C2341      N2348   1.430       .  S
C2342      H2347   1.083       .  S
C2343      C2692   1.423       .  A
C2344      C2691   1.423       .  A
C2344      N2345   1.443       .  S
N2345      O2349   1.263       .  A
N2345      O2350   1.261       .  A
N2348      O2352   1.262       .  A
N2348      O2351   1.262       .  A
C2353      C2354   1.404       .  A
C2353      C2358   1.394       .  A
C2353      H2360   1.081       .  S
C2355      C2356   1.409       .  A
C2355      N2362   1.443       .  S
C2356      H2361   1.084       .  S
C2357      C2358   1.404       .  A
C2358      N2359   1.429       .  S
N2359      O2363   1.262       .  A
N2359      O2364   1.262       .  A
N2362      O2366   1.263       .  A
N2362      O2365   1.263       .  A
C2367      C2368   1.408       .  A
C2367      C2372   1.397       .  A
C2367      H2374   1.083       .  S
C2369      C2370   1.406       .  A
C2369      N2376   1.438       .  S
C2370      H2375   1.084       .  S
C2371      C2372   1.403       .  A
C2372      N2373   1.430       .  S
N2373      O2377   1.262       .  A
N2373      O2378   1.262       .  A
N2376      O2380   1.263       .  A
N2376      O2379   1.260       .  A
C2381      C2386   1.397       .  A
C2381      H2388   1.084       .  S
C2382      C2383   1.414       .  A
C2383      C2384   1.398       .  A
C2383      N2390   1.430       .  S
C2384      C2385   1.406       .  A
C2384      H2389   1.084       .  S
C2386      N2387   1.430       .  S
N2387      O2391   1.262       .  A
N2387      O2392   1.262       .  A
N2390      O2394   1.262       .  A
N2390      O2393   1.262       .  A
C2395      C2396   1.405       .  A
C2395      C2400   1.397       .  A
C2395      H2402   1.084       .  S
C2397      C2398   1.397       .  A
C2397      N2404   1.429       .  S
C2398      H2403   1.084       .  S
C2399      C2400   1.414       .  A
C2400      N2401   1.429       .  S
N2401      O2405   1.262       .  A
N2401      O2406   1.262       .  A
N2404      O2408   1.262       .  A
N2404      O2407   1.262       .  A
C2409      C2414   1.396       .  A
C2409      H2416   1.083       .  S
C2410      C2759   1.420       .  A
C2411      C2758   1.420       .  A
C2411      C2760   1.404       .  A
C2411      N2418   1.436       .  S
C2412      C2759   1.404       .  A
C2412      H2417   1.084       .  S
C2413      C2414   1.404   1_655  A
C2414      N2415   1.431       .  S
N2415      O2767   1.262       .  A
N2415      O2420   1.262       .  A
N2418      O2770   1.260       .  A
N2418      O2421   1.263       .  A
O2419      N2763   1.262       .  A
O2422      N2766   1.260       .  A
C2423      C2428   1.405       .  A
C2423      H2430   1.084       .  S
C2424      C2425   1.406   1_455  A
C2425      C2426   1.398       .  A
C2425      N2432   1.434       .  S
C2426      H2431   1.083       .  S
C2427      C2776   1.419   1_554  A
C2428      C2775   1.419       .  A
C2428      N2429   1.444       .  S
N2429      O2433   1.263       .  A
N2429      O2434   1.263       .  A
N2432      O2436   1.262       .  A
N2432      O2435   1.262   1_655  A
O2437     Ni2445   1.910       .  S
O2439     Ni2445   1.913       .  S
O2439      C2449   1.279       .  A
O2442     Ni2446   1.916       .  S
O2443     Ni2446   1.910   1_556  S
O2443      C2448   1.280       .  A
O2444      C2447   1.281       .  A
C2447      C2744   1.483       .  S
C2448      C2730   1.483       .  S
C2449      C2761   1.468       .  S
C2450      C2772   1.466       .  S
O2451     Ni2459   1.916       .  S
O2452     Ni2459   1.916       .  S
O2453     Ni2459   1.910       .  S
O2454     Ni2459   1.911       .  S
O2455     Ni2460   1.910       .  S
O2455      C2464   1.281       .  A
O2456     Ni2460   1.910       .  S
O2456      C2463   1.280       .  A
O2457     Ni2460   1.918       .  S
O2457      C2462   1.281       .  A
O2458     Ni2460   1.918       .  S
O2458      C2461   1.281       .  A
C2461      C2705   1.469       .  S
C2462      C2719   1.471       .  S
C2463      C2747   1.483       .  S
C2464      C2733   1.484       .  S
C2465      C2660   1.492       .  S
C2466      C2775   1.489       .  S
C2467      C2674   1.485       .  S
C2467      C2468   1.411       .  A
C2468      C2646   1.490       .  S
C2468      C2469   1.417       .  A
C2469      C2758   1.500       .  S
C2470      C2691   1.491       .  S
C2471      C2590   1.497       .  S
C2471      C2472   1.419       .  A
C2471      C2476   1.413       .  A
C2472      C2621   1.496       .  S
C2473      C2716   1.502       .  S
C2474      C2604   1.503       .  S
C2475      C2632   1.495       .  S
C2476      C2702   1.497       .  S
O2477     Ni2485   1.915       .  S
O2479     Ni2485   1.906       .  S
O2481      C2490   1.280       .  A
O2482     Ni2486   1.914       .  S
O2483     Ni2486   1.909       .  S
O2483      C2488   1.280       .  A
O2484      C2487   1.279       .  A
C2487      C2576   1.483       .  S
C2488      C2565   1.482       .  S
C2489      C2688   1.463       .  S
C2490      C2677   1.459       .  S
O2491     Ni2499   1.910       .  S
O2492     Ni2499   1.909       .  S
O2493     Ni2499   1.913       .  S
O2493      C2503   1.280   1_565  A
O2494     Ni2499   1.913       .  S
O2494      C2504   1.279       .  A
O2495     Ni2500   1.910       .  S
O2496     Ni2500   1.914       .  S
O2497     Ni2500   1.915       .  S
O2497      C2502   1.282       .  A
O2498     Ni2500   1.915       .  S
O2498      C2501   1.281       .  A
C2501      C2562   1.484       .  S
C2502      C2579   1.481       .  S
C2504      C2618   1.463       .  S
O2505     Ni2513   1.909       .  S
O2505      C2515   1.278       .  A
O2507      C2517   1.282       .  A
O2508     Ni2513   1.917       .  S
O2508      C2518   1.282       .  A
O2509     Ni2514   1.911       .  S
O2509      C2518   1.280       .  A
O2510      C2517   1.280       .  A
O2511     Ni2514   1.915       .  S
O2511      C2516   1.281       .  A
Ni2513    Ni2514   2.390       .  S
C2515      C2649   1.461       .  S
C2516      C2663   1.464       .  S
C2517      C2534   1.482       .  S
C2518      C2551   1.484       .  S
O2519     Ni2527   1.913       .  S
O2519      C2529   1.280       .  A
O2520     Ni2527   1.913       .  S
O2520      C2530   1.280       .  A
O2521     Ni2527   1.912       .  S
O2521      C2531   1.281       .  A
O2522     Ni2527   1.913       .  S
O2522      C2532   1.281       .  A
O2523     Ni2528   1.915       .  S
O2523      C2532   1.281       .  A
O2524     Ni2528   1.916       .  S
O2524      C2531   1.281       .  A
O2525     Ni2528   1.918       .  S
O2525      C2530   1.281       .  A
O2526     Ni2528   1.918       .  S
O2526      C2529   1.280       .  A
Ni2527    Ni2528   2.389       .  S
C2529      C2593   1.466       .  S
C2530      C2607   1.471       .  S
C2531      C2548   1.481       .  S
C2532      C2537   1.484       .  S
C2533      C2534   1.405       .  A
C2533      C2538   1.398       .  A
C2533      H2540   1.084       .  S
C2534      C2535   1.412       .  A
C2535      C2536   1.400       .  A
C2535      N2542   1.431       .  S
C2536      C2537   1.407       .  A
C2536      H2541   1.084       .  S
C2537      C2538   1.414       .  A
C2538      N2539   1.430       .  S
N2539      O2543   1.262       .  A
N2539      O2544   1.262       .  A
N2542      O2546   1.262       .  A
N2542      O2545   1.262       .  A
C2547      C2548   1.404       .  A
C2547      C2552   1.399       .  A
C2547      H2554   1.084       .  S
C2548      C2549   1.412       .  A
C2549      C2550   1.400       .  A
C2549      N2556   1.430       .  S
C2550      C2551   1.406       .  A
C2550      H2555   1.084       .  S
C2551      C2552   1.413       .  A
C2552      N2553   1.431       .  S
N2553      O2557   1.262       .  A
N2553      O2558   1.262       .  A
N2556      O2560   1.262       .  A
N2556      O2559   1.262       .  A
C2561      C2566   1.398       .  A
C2561      H2568   1.084       .  S
C2562      C2563   1.414       .  A
C2563      C2564   1.399       .  A
C2563      N2570   1.430       .  S
C2564      C2565   1.405       .  A
C2564      H2569   1.084       .  S
C2566      N2567   1.429       .  S
N2567      O2571   1.262       .  A
N2567      O2572   1.262       .  A
N2570      O2574   1.262       .  A
N2570      O2573   1.262       .  A
C2575      C2580   1.397       .  A
C2575      H2582   1.084       .  S
C2576      C2577   1.416       .  A
C2577      C2578   1.399       .  A
C2577      N2584   1.430       .  S
C2578      C2579   1.404       .  A
C2578      H2583   1.084       .  S
C2580      N2581   1.430       .  S
N2581      O2585   1.262       .  A
N2581      O2586   1.262       .  A
N2584      O2588   1.262       .  A
N2584      O2587   1.262       .  A
C2589      C2590   1.407       .  A
C2589      C2594   1.398       .  A
C2589      H2596   1.082       .  S
C2590      C2591   1.416       .  A
C2591      C2592   1.404       .  A
C2591      N2598   1.437       .  S
C2592      C2593   1.400       .  A
C2592      H2597   1.084       .  S
C2593      C2594   1.404       .  A
C2594      N2595   1.431       .  S
N2595      O2599   1.262       .  A
N2595      O2600   1.262       .  A
N2598      O2602   1.263       .  A
N2598      O2601   1.262       .  A
C2603      C2604   1.408       .  A
C2603      C2608   1.399       .  A
C2603      H2610   1.083       .  S
C2604      C2605   1.421       .  A
C2605      C2606   1.403       .  A
C2605      N2612   1.436       .  S
C2606      C2607   1.399       .  A
C2606      H2611   1.084       .  S
C2607      C2608   1.406       .  A
C2608      N2609   1.434       .  S
N2609      O2613   1.263       .  A
N2609      O2614   1.262       .  A
N2612      O2616   1.263       .  A
N2612      O2615   1.260       .  A
C2617      C2622   1.402       .  A
C2617      H2624   1.083       .  S
C2618      C2619   1.403   1_565  A
C2619      C2620   1.394       .  A
C2619      N2626   1.431       .  S
C2620      H2625   1.083       .  S
C2621      C2622   1.418       .  A
C2622      N2623   1.434       .  S
N2623      O2627   1.263       .  A
N2623      O2628   1.260       .  A
N2626      O2630   1.262       .  A
N2626      O2629   1.262       .  A
C2631      C2632   1.407       .  A
C2631      C2636   1.395       .  A
C2631      H2638   1.083       .  S
C2633      C2634   1.405       .  A
C2633      N2640   1.444       .  S
C2634      H2639   1.084       .  S
C2635      C2636   1.403       .  A
C2636      N2637   1.430       .  S
N2637      O2641   1.262       .  A
N2637      O2642   1.262       .  A
N2640      O2644   1.263       .  A
N2640      O2643   1.262       .  A
C2645      C2646   1.405       .  A
C2645      C2650   1.395       .  A
C2645      H2652   1.085       .  S
C2647      C2648   1.403       .  A
C2647      N2654   1.437       .  S
C2648      H2653   1.086       .  S
C2649      C2650   1.403       .  A
C2650      N2651   1.432       .  S
N2651      O2656   1.262       .  A
N2654      O2657   1.263       .  A
C2659      C2664   1.396       .  A
C2659      H2666   1.082       .  S
C2660      C2661   1.417       .  A
C2661      C2662   1.403       .  A
C2661      N2668   1.440       .  S
C2662      C2663   1.400       .  A
C2662      H2667   1.084       .  S
C2664      N2665   1.432       .  S
N2665      O2669   1.262       .  A
N2668      O2672   1.263       .  A
C2673      C2678   1.394       .  A
C2673      H2680   1.080       .  S
C2674      C2675   1.418       .  A
C2675      C2676   1.403       .  A
C2675      N2682   1.442       .  S
C2676      C2677   1.399       .  A
C2676      H2681   1.084       .  S
C2678      N2679   1.433       .  S
N2679      O2683   1.262   1_545  A
N2682      O2686   1.262       .  A
C2687      C2692   1.405       .  A
C2687      H2694   1.084       .  S
C2689      C2690   1.393       .  A
C2689      N2696   1.431       .  S
C2690      H2695   1.083       .  S
C2692      N2693   1.443       .  S
N2693      O2697   1.263       .  A
N2693      O2698   1.261       .  A
N2696      O2700   1.262       .  A
N2696      O2699   1.262       .  A
C2701      C2702   1.404       .  A
C2701      C2706   1.394       .  A
C2701      H2708   1.081       .  S
C2703      C2704   1.408       .  A
C2703      N2710   1.443       .  S
C2704      H2709   1.084       .  S
C2705      C2706   1.404       .  A
C2706      N2707   1.429       .  S
N2707      O2711   1.262       .  A
N2707      O2712   1.262       .  A
N2710      O2714   1.263       .  A
N2710      O2713   1.263       .  A
C2715      C2716   1.408       .  A
C2715      C2720   1.397       .  A
C2715      H2722   1.083       .  S
C2717      C2718   1.406       .  A
C2717      N2724   1.438       .  S
C2718      H2723   1.084       .  S
C2719      C2720   1.403       .  A
C2720      N2721   1.430       .  S
N2721      O2725   1.262       .  A
N2721      O2726   1.262       .  A
N2724      O2728   1.263       .  A
N2724      O2727   1.260       .  A
C2729      C2734   1.397       .  A
C2729      H2736   1.084       .  S
C2730      C2731   1.414       .  A
C2731      C2732   1.398       .  A
C2731      N2738   1.430       .  S
C2732      C2733   1.406       .  A
C2732      H2737   1.084       .  S
C2734      N2735   1.430       .  S
N2735      O2739   1.262       .  A
N2735      O2740   1.262       .  A
N2738      O2742   1.262       .  A
N2738      O2741   1.262       .  A
C2743      C2744   1.405       .  A
C2743      C2748   1.397       .  A
C2743      H2750   1.084       .  S
C2745      C2746   1.396       .  A
C2745      N2752   1.429       .  S
C2746      H2751   1.084       .  S
C2747      C2748   1.414       .  A
C2748      N2749   1.429       .  S
N2749      O2753   1.262       .  A
N2749      O2754   1.262       .  A
N2752      O2756   1.262       .  A
N2752      O2755   1.262       .  A
C2757      C2762   1.396       .  A
C2757      H2764   1.082       .  S
C2759      N2766   1.436       .  S
C2760      H2765   1.084       .  S
C2761      C2762   1.404   1_655  A
C2762      N2763   1.431       .  S
N2763      O2768   1.262       .  A
N2766      O2769   1.263       .  A
C2771      C2776   1.405       .  A
C2771      H2778   1.084       .  S
C2772      C2773   1.406   1_455  A
C2773      C2774   1.398       .  A
C2773      N2780   1.434       .  S
C2774      H2779   1.083       .  S
C2776      N2777   1.444       .  S
N2777      O2781   1.263       .  A
N2777      O2782   1.263       .  A
N2780      O2784   1.262       .  A
N2780      O2783   1.262   1_655  A
