geometry optimzed in LAMMPS
_audit_creation_date              2020-12-01 
_audit_creation_method            'lammps2cif' 
_symmetry_space_group_name_H-M    'P1' 
_symmetry_Int_Tables_number       1 
_symmetry_cell_setting            triclinic 
loop_ 
_symmetry_equiv_pos_as_xyz 
  x,y,z 
_cell_length_a                    35.88034636 
_cell_length_b                    35.88222462571298 
_cell_length_c                    25.92848906138879 
_cell_angle_alpha                 89.70544657908812 
_cell_angle_beta                  89.87834756046902 
_cell_angle_gamma                 119.91479944178069 
loop_ 
_atom_site_label 
_atom_site_type_symbol 
_atom_site_fract_x 
_atom_site_fract_y 
_atom_site_fract_z 
_atom_site_charge 
C1          C  0.33551703  0.16572578  0.08289966     0.31000
C2          C  0.33659001  0.16773216  0.97666926     0.31000
C3          C  0.35795414  0.14354231  0.05608953    -0.05200
C4          C  0.29094398  0.14288669  0.05625399    -0.05900
C5          C  0.35746597  0.21053252  0.05746625    -0.05800
C6          C  0.36020133  0.14663595  0.00234013    -0.05200
C7          C  0.29228160  0.14438942  0.00241556    -0.05900
C8          C  0.35826360  0.21155471  0.00365006    -0.05800
C9          C  0.38397207  0.12842308  0.98595101    -0.31200
N10         N  0.39268546  0.11086728  0.02716393     0.15300
C11         C  0.37627228  0.11887308  0.07012219    -0.31200
H12         H  0.37760364  0.10750782  0.10844402     0.17200
C13         C  0.25086051  0.12326356  0.98468335    -0.30200
N14         N  0.22397342  0.10868047  0.02577193     0.14000
C15         C  0.24763413  0.11965200  0.06967748    -0.30200
C16         C  0.38235412  0.25400394  0.98922562    -0.30500
N17         N  0.39416413  0.27846386  0.03212154     0.14500
H18         H  0.39199091  0.26664742  0.95051359     0.17100
C19         C  0.37985665  0.25256806  0.07431077    -0.30500
H20         H  0.38558726  0.26343583  0.11386744     0.17100
H21         H  0.23408069  0.11094360  0.10809615     0.17100
H22         H  0.39316346  0.12658472  0.94668531     0.17200
H23         H  0.24086224  0.11941880  0.94477615     0.17100
C24         C  0.33329784  0.17165417  0.47662661     0.31000
C25         C  0.33074269  0.16955722  0.58282820     0.31000
C26         C  0.35415891  0.14888618  0.50329866    -0.05200
C27         C  0.35448565  0.21563906  0.50351076    -0.05900
C28         C  0.28807508  0.15007621  0.50138009    -0.05800
C29         C  0.35349067  0.14803953  0.55683153    -0.05200
C30         C  0.35294882  0.21495866  0.55746896    -0.05900
C31         C  0.28639499  0.14826258  0.55539505    -0.05800
C32         C  0.37546699  0.12743541  0.57233526    -0.31200
N33         N  0.38833044  0.11556307  0.52925960     0.15300
C34         C  0.37550661  0.12838808  0.48710819    -0.31200
H35         H  0.38202768  0.12375022  0.44756366     0.17200
C36         C  0.37010329  0.25739685  0.57295463    -0.30200
N37         N  0.38336733  0.28293974  0.53034173     0.14000
C38         C  0.37289519  0.25790548  0.48803488    -0.30200
C39         C  0.24314966  0.12850884  0.56896898    -0.30500
N40         N  0.21950710  0.11862482  0.52523075     0.14500
H41         H  0.22959106  0.12229117  0.60745069     0.17100
C42         C  0.24646189  0.13308339  0.48417677    -0.30500
H43         H  0.23604099  0.13081625  0.44463876     0.17100
H44         H  0.37743750  0.26992556  0.44882722     0.17100
H45         H  0.38165799  0.12158927  0.61152618     0.17200
H46         H  0.37254939  0.26899479  0.61192214     0.17100
C47         C  0.16672850  0.32828180  0.02358802     0.31000
C48         C  0.16967222  0.33106276  0.91733876     0.31000
C49         C  0.14383658  0.34976770  0.99720914    -0.05200
C50         C  0.21152989  0.35162417  0.99890459    -0.05900
C51         C  0.14526064  0.28461487  0.99611076    -0.05800
C52         C  0.14675297  0.35305086  0.94351158    -0.05200
C53         C  0.21369251  0.35367788  0.94509656    -0.05900
C54         C  0.14725889  0.28603137  0.94227229    -0.05800
C55         C  0.12839035  0.37760787  0.92897057    -0.31200
N56         N  0.11195457  0.38593684  0.97175030     0.15300
C57         C  0.12047234  0.36847940  0.01321616    -0.31200
H58         H  0.11148147  0.37073485  0.05245918     0.17200
C59         C  0.25708016  0.37768473  0.93258219    -0.30200
N60         N  0.28015458  0.38805773  0.97680374     0.14000
C61         C  0.25277395  0.37276084  0.01744346    -0.30200
C62         C  0.12511749  0.24410540  0.92489555    -0.30500
N63         N  0.10947653  0.21794202  0.96674538     0.14500
H64         H  0.12045230  0.23351282  0.88523328     0.17100
C65         C  0.12002133  0.24211199  0.00977095    -0.30500
H66         H  0.10842152  0.22911104  0.04791519     0.17100
H67         H  0.26228985  0.37623484  0.05750760     0.17100
H68         H  0.12706575  0.38864218  0.89045985     0.17200
H69         H  0.27121476  0.38764394  0.89458817     0.17100
C70         C  0.16494259  0.33947596  0.41733550     0.31000
C71         C  0.16166282  0.33535914  0.52349827     0.31000
C72         C  0.14239377  0.36171376  0.44394664    -0.05200
C73         C  0.14188393  0.29405846  0.44153280    -0.05900
C74         C  0.20866941  0.36143043  0.44538183    -0.05800
C75         C  0.13976186  0.35830180  0.49788011    -0.05200
C76         C  0.13915444  0.29227911  0.49517322    -0.05900
C77         C  0.20653646  0.35798645  0.49898549    -0.05800
C78         C  0.11529259  0.37583133  0.51395244    -0.31200
N79         N  0.10617215  0.39288286  0.47263845     0.15300
C80         C  0.12280421  0.38518554  0.42971153    -0.31200
H81         H  0.12074593  0.39607063  0.39140325     0.17200
C82         C  0.11488497  0.24979490  0.50896931    -0.30200
N83         N  0.10553453  0.22560771  0.46604215     0.14000
C84         C  0.12173700  0.25198715  0.42426705    -0.30200
C85         C  0.24788252  0.37864579  0.51730076    -0.30500
N86         N  0.27509047  0.39578348  0.47664378     0.14500
H87         H  0.25752724  0.38202230  0.55730893     0.17100
C88         C  0.25179706  0.38676958  0.43271107    -0.30500
H89         H  0.26540563  0.39794780  0.39467456     0.17100
H90         H  0.11902945  0.24143980  0.38473343     0.17100
H91         H  0.10397514  0.37570193  0.55268588     0.17200
H92         H  0.10540516  0.23691660  0.54763816     0.17100
O93         O  0.05789426  0.47935430  0.03529434    -0.87300
C94         C  0.06822291  0.06000630  0.91841132     0.88700
Mg95       Mg  0.00924187  0.41317180  0.03646071     1.58100
O96         O  0.02197103  0.07255606  0.03213689    -0.87000
O97         O  0.07771607  0.03552727  0.08417563    -0.74400
C98         C  0.32584701  0.40877837  0.98122931     0.93800
O99         O  0.03692165  0.45782783  0.91467893    -0.74200
O100        O  0.34448903  0.38704289  0.97300033    -0.81700
Mg101      Mg  0.09457544  0.00328934  0.96433681     1.58000
C102        C  0.41266333  0.08509967  0.02315030     0.93700
O103        O  0.15824841  0.04941722  0.00473520    -0.80000
H104        H  0.02671547  0.08678481  0.10710146    -0.05300
C105        C  0.43532998  0.49940935  0.92231961     0.88600
O106        O  0.46549911  0.42650340  0.08873020    -0.74500
O107        O  0.07624437  0.05164314  0.96186600    -0.87200
O108        O  0.45014870  0.10200797  0.00325664    -0.80000
C109        C  0.08598755  0.17219041  0.96850764     0.93800
C110        C  0.17824666  0.08787558  0.02137552     0.93700
Mg111      Mg  0.41009996  0.49365924  0.03627206     1.58000
O112        O  0.34601762  0.44740359  0.99718178    -0.80000
O113        O  0.46771187  0.03944124  0.08538876    -0.74200
O114        O  0.10514276  0.15275775  0.98544733    -0.80000
O115        O  0.11369579  0.45163593  0.96508199    -0.81800
O116        O  0.39880466  0.34402741  0.01513742    -0.80100
C117        C  0.50640105  0.06763830  0.07583214     0.88100
O118        O  0.42847083  0.44523860  0.03868363    -0.87200
O119        O  0.44632899  0.01691585  0.96477431    -0.87300
O120        O  0.42550583  0.46056336  0.91606146    -0.74400
Mg121      Mg  0.08873600  0.09071355  0.02993299     1.58000
O122        O  0.04582110  0.15300706  0.96009845    -0.81700
H123        H  0.06728002  0.47791392  0.11103561    -0.05500
O124        O  0.48221917  0.42427301  0.96734300    -0.87000
H125        H  0.47785697  0.41113320  0.89205710    -0.05300
H126        H  0.41948304  0.43884697  0.11501380    -0.05500
C127        C  0.99803404  0.42976650  0.92369182     0.88100
C128        C  0.06813355  0.99672727  0.07791149     0.88700
C129        C  0.43654749  0.43651522  0.08191296     0.88700
H130        H  0.43571934  0.01812542  0.88933255    -0.05500
O131        O  0.03891176  0.06940454  0.91099203    -0.74500
Mg132      Mg  0.41523579  0.40592871  0.97064676     1.58000
H133        H  0.08554421  0.05766814  0.88558906    -0.05500
C134        C  0.09189632  0.41167127  0.97559878     0.93700
O135        O  0.45834739  0.34307949  0.03759465    -0.81700
C136        C  0.41802822  0.32420445  0.03033413     0.93800
O137        O  0.15955157  0.10961844  0.02923785    -0.81700
Mg138      Mg  0.49500686  0.08299123  0.96242846     1.58200
O139        O  0.05405339  0.39445580  0.99455949    -0.80000
O140        O  0.39117005  0.04538362  0.03502343    -0.81700
O141        O  0.47727160  0.05810048  0.46415562    -0.87300
C142        C  0.06377612  0.07433734  0.57540753     0.88700
Mg143      Mg  0.41061843  0.01033972  0.46792174     1.58100
O144        O  0.07166448  0.02481310  0.46256333    -0.87000
O145        O  0.03155546  0.07773539  0.41124581    -0.74400
C146        C  0.40511739  0.32884907  0.52796004     0.93800
O147        O  0.46152733  0.04147549  0.58637027    -0.72800
O148        O  0.38411603  0.34794452  0.53752209    -0.81700
Mg149      Mg  0.00425943  0.09725941  0.53197283     1.58000
C150        C  0.08204436  0.41458054  0.47594729     0.93700
O151        O  0.04740621  0.15924903  0.48696274    -0.80000
H152        H  0.08104708  0.02553646  0.38650621    -0.05300
C153        C  0.50117454  0.44115228  0.57966949     0.88600
O154        O  0.42102128  0.46494851  0.41582412    -0.74500
O155        O  0.05312279  0.08008042  0.53214940    -0.87200
O156        O  0.10132859  0.45370296  0.49049830    -0.80000
C157        C  0.17377144  0.09301002  0.52072054     0.93800
C158        C  0.08535265  0.17986210  0.46846280     0.93700
Mg159      Mg  0.49014387  0.41211959  0.46823434     1.58000
O160        O  0.44376595  0.34876476  0.51103961    -0.80000
O161        O  0.03454929  0.46809253  0.41463678    -0.74200
O162        O  0.15333966  0.11053097  0.50211803    -0.80000
O163        O  0.45311477  0.11611620  0.53312525    -0.81800
O164        O  0.34059612  0.40180291  0.49874644    -0.80100
C165        C  0.06371037  0.50702903  0.42012796     0.88100
O166        O  0.44147367  0.43010696  0.46705089    -0.87200
O167        O  0.01731174  0.45123400  0.53612984    -0.87300
O168        O  0.46219005  0.43040412  0.58792236    -0.74400
Mg169      Mg  0.08942420  0.09143787  0.46140444     1.58000
O170        O  0.15548934  0.05281449  0.53068130    -0.81700
H171        H  0.47234648  0.06494586  0.38836708    -0.05500
O172        O  0.42374638  0.48537902  0.53777536    -0.87000
H173        H  0.41542536  0.48371635  0.61413453    -0.05300
H174        H  0.43162529  0.41730865  0.39178675    -0.05500
C175        C  0.43225783  0.00265211  0.58054233     0.88100
C176        C  0.99277320  0.06730944  0.42022845     0.88700
C177        C  0.43091017  0.43608094  0.42386656     0.88700
H178        H  0.02104612  0.44264859  0.61175689    -0.05500
O179        O  0.07345180  0.04536997  0.58386719    -0.74500
Mg180      Mg  0.40465045  0.41871218  0.53776082     1.58000
H181        H  0.06308464  0.09328061  0.60730023    -0.05500
C182        C  0.41280472  0.09441572  0.52612453     0.93700
O183        O  0.33994521  0.46016196  0.47019609    -0.81700
C184        C  0.32079877  0.42026001  0.48092628     0.93800
O185        O  0.10759584  0.16192946  0.45930820    -0.81700
Mg186      Mg  0.08452102  0.50011164  0.53255881     1.58200
O187        O  0.39407273  0.05581901  0.51030682    -0.80000
O188        O  0.04154729  0.39301885  0.46944783    -0.81700
C189        C  0.16394659  0.36366528  0.66752505     0.13700
C190        C  0.16508587  0.32930425  0.69190522     0.00700
C191        C  0.16911758  0.29924506  0.66161068     0.15600
C192        C  0.16972048  0.30229500  0.60778085     0.25100
C193        C  0.16316564  0.33370300  0.58270737    -0.41300
C194        C  0.16499586  0.36692181  0.61369258     0.32100
C195        C  0.16528516  0.32692914  0.74894836     0.00700
F196        F  0.17291620  0.26706893  0.68416283    -0.13600
F197        F  0.17230200  0.40465496  0.59270069    -0.14100
C198        C  0.12982397  0.32171945  0.77761209     0.15700
C199        C  0.13077124  0.32155772  0.83154637     0.25100
C200        C  0.16827193  0.32906909  0.85820852    -0.41200
C201        C  0.20091103  0.32778505  0.82895948     0.32000
C202        C  0.20035106  0.32875237  0.77503085     0.13700
F203        F  0.09368694  0.31545547  0.75326655    -0.13600
F204        F  0.23134638  0.32162176  0.85177549    -0.14100
F205        F  0.09396064  0.31146802  0.85737502    -0.16400
F206        F  0.23405738  0.33116830  0.74824517    -0.14900
F207        F  0.16409481  0.39538784  0.69602737    -0.14900
F208        F  0.17955589  0.27611892  0.58058711    -0.16400
C209        C  0.16524288  0.29789355  0.16730272     0.13700
C210        C  0.16839597  0.33396430  0.19207364     0.00700
C211        C  0.17539300  0.36960800  0.16238540     0.15600
C212        C  0.17677201  0.36820863  0.10853835     0.25100
C213        C  0.16828309  0.33001921  0.08287907    -0.41300
C214        C  0.16714093  0.29671033  0.11350042     0.32100
C215        C  0.16743700  0.33549248  0.24901837     0.00700
F216        F  0.18244763  0.40637183  0.18565344    -0.13600
F217        F  0.17273231  0.26535718  0.09252583    -0.14100
C218        C  0.19910331  0.33328914  0.27818963     0.15700
C219        C  0.19745151  0.33316864  0.33203212     0.25100
C220        C  0.16571019  0.33835841  0.35821207    -0.41200
C221        C  0.13122891  0.33520800  0.32844110     0.32000
C222        C  0.13304591  0.33564274  0.27448937     0.13700
F223        F  0.23129793  0.33035734  0.25442724    -0.13600
F224        F  0.09386500  0.32745453  0.35088764    -0.14100
F225        F  0.22507322  0.32460287  0.35810898    -0.16400
F226        F  0.10000002  0.33385339  0.24704645    -0.14900
F227        F  0.16129609  0.26405771  0.19541717    -0.14900
F228        F  0.18872191  0.40510976  0.08176143    -0.16400
C229        C  0.32858577  0.12904211  0.83667589     0.13700
C230        C  0.33105018  0.16352679  0.80820253     0.00700
C231        C  0.33047212  0.19726845  0.83459163     0.15600
C232        C  0.33031248  0.19788085  0.88857065     0.25100
C233        C  0.33385592  0.16626076  0.91748906    -0.41300
C234        C  0.32788143  0.12948058  0.89055144     0.32100
C235        C  0.33201010  0.16351855  0.75105107     0.00700
F236        F  0.32822307  0.22877830  0.80796952    -0.13600
F237        F  0.31859100  0.09268442  0.91597183    -0.14100
C238        C  0.29936134  0.12965373  0.72303818     0.15700
C239        C  0.30011942  0.13051681  0.66909506     0.25100
C240        C  0.33153574  0.16699233  0.64183934    -0.41200
C241        C  0.36723944  0.19769442  0.67023923     0.32000
C242        C  0.36673993  0.19673725  0.72417723     0.13700
F243        F  0.26671775  0.09553301  0.74786534    -0.13600
F244        F  0.40407620  0.22682254  0.64622352    -0.14100
F245        F  0.27195825  0.09424197  0.64402828    -0.16400
F246        F  0.40102587  0.22745264  0.75026730    -0.14900
F247        F  0.32673742  0.09473767  0.81236306    -0.14900
F248        F  0.32263080  0.22712068  0.91190592    -0.16400
C249        C  0.30899668  0.17434513  0.22501376     0.13700
C250        C  0.34298090  0.17387798  0.25114973     0.00700
C251        C  0.37684211  0.17549154  0.22222544     0.15600
C252        C  0.37515586  0.17458010  0.16830151     0.25100
C253        C  0.33797948  0.16852724  0.14196031    -0.41300
C254        C  0.30722579  0.17311443  0.17111014     0.32100
C255        C  0.34271945  0.17209016  0.30838651     0.00700
F256        F  0.41161009  0.17782552  0.24603066    -0.13600
F257        F  0.27738049  0.17996987  0.14782301    -0.14100
C258        C  0.30825244  0.13774110  0.33427716     0.15700
C259        C  0.30628532  0.13642185  0.38814688     0.25100
C260        C  0.33700471  0.17125091  0.41757326    -0.41200
C261        C  0.37477108  0.20190795  0.39151515     0.32000
C262        C  0.37689640  0.20331651  0.33753339     0.13700
F263        F  0.27713155  0.10451168  0.30722766    -0.13600
F264        F  0.41077856  0.22891746  0.41796475    -0.14100
F265        F  0.27630660  0.09940645  0.41103973    -0.16400
F266        F  0.41233685  0.23531759  0.31392224    -0.14900
F267        F  0.27811169  0.17744003  0.25182778    -0.14900
F268        F  0.41122145  0.18250142  0.14224518    -0.16400
C269        C  0.33551840  0.66572546  0.08289886     0.31000
C270        C  0.33659067  0.66773322  0.97666851     0.31000
C271        C  0.35795566  0.64354264  0.05608754    -0.05200
C272        C  0.29094520  0.64288649  0.05625359    -0.05900
C273        C  0.35746689  0.71053250  0.05746629    -0.05800
C274        C  0.36020249  0.64663691  0.00233814    -0.05200
C275        C  0.29228247  0.64439003  0.00241521    -0.05900
C276        C  0.35826415  0.71155542  0.00365010    -0.05800
C277        C  0.38397318  0.62842418  0.98594808    -0.31200
N278        N  0.39268682  0.61086791  0.02716029     0.15300
C279        C  0.37627387  0.61887325  0.07011916    -0.31200
H280        H  0.37760527  0.60750745  0.10844053     0.17200
C281        C  0.25086128  0.62326476  0.98468340    -0.30200
N282        N  0.22397445  0.60868104  0.02577218     0.14000
C283        C  0.24763546  0.61965170  0.06967746    -0.30200
C284        C  0.38235392  0.75400487  0.98922646    -0.30500
N285        N  0.39416383  0.77846420  0.03212281     0.14500
H286        H  0.39199025  0.76664897  0.95051443     0.17100
C287        C  0.37985706  0.75256782  0.07431166    -0.30500
H288        H  0.38558769  0.76343499  0.11386841     0.17100
H289        H  0.23408226  0.61094273  0.10809623     0.17100
H290        H  0.39316429  0.62658611  0.94668199     0.17200
H291        H  0.24086271  0.61942071  0.94477632     0.17100
C292        C  0.33329880  0.67165308  0.47662564     0.31000
C293        C  0.33074306  0.66955723  0.58282715     0.31000
C294        C  0.35416000  0.64888568  0.50329861    -0.05200
C295        C  0.35448628  0.71563829  0.50350908    -0.05900
C296        C  0.28807593  0.65007510  0.50137872    -0.05800
C297        C  0.35349156  0.64803954  0.55683151    -0.05200
C298        C  0.35294892  0.71495839  0.55746723    -0.05900
C299        C  0.28639555  0.64826204  0.55539362    -0.05800
C300        C  0.37546797  0.62743562  0.57233584    -0.31200
N301        N  0.38833149  0.61556291  0.52926051     0.15300
C302        C  0.37550769  0.62838748  0.48710879    -0.31200
H303        H  0.38202873  0.62374917  0.44756436     0.17200
C304        C  0.37010241  0.75739663  0.57295215    -0.30200
N305        N  0.38336693  0.78293921  0.53033903     0.14000
C306        C  0.37289579  0.75790458  0.48803255    -0.30200
C307        C  0.24315020  0.62850843  0.56896724    -0.30500
N308        N  0.21950788  0.61862416  0.52522884     0.14500
H309        H  0.22959146  0.62229098  0.60744889     0.17100
C310        C  0.24646283  0.63308215  0.48417493    -0.30500
H311        H  0.23604217  0.63081468  0.44463694     0.17100
H312        H  0.37743867  0.76992425  0.44882464     0.17100
H313        H  0.38165893  0.62158977  0.61152703     0.17200
H314        H  0.37254750  0.76899488  0.61191940     0.17100
C315        C  0.16672625  0.82828183  0.02358861     0.31000
C316        C  0.16967146  0.83106341  0.91733939     0.31000
C317        C  0.14383475  0.84976787  0.99720915    -0.05200
C318        C  0.21152800  0.85162427  0.99890613    -0.05900
C319        C  0.14525883  0.78461505  0.99611097    -0.05800
C320        C  0.14675188  0.85305135  0.94351167    -0.05200
C321        C  0.21369141  0.85367827  0.94509812    -0.05900
C322        C  0.14725790  0.78603193  0.94227258    -0.05800
C323        C  0.12838922  0.87760820  0.92897013    -0.31200
N324        N  0.11195271  0.88593672  0.97174946     0.15300
C325        C  0.12047010  0.86847924  0.01321564    -0.31200
H326        H  0.11147872  0.87073446  0.05245835     0.17200
C327        C  0.25707931  0.87768485  0.93258473    -0.30200
N328        N  0.28015303  0.88805759  0.97680693     0.14000
C329        C  0.25277176  0.87276056  0.01744592    -0.30200
C330        C  0.12511784  0.74410607  0.92489532    -0.30500
N331        N  0.10947686  0.71794235  0.96674481     0.14500
H332        H  0.12045372  0.73351384  0.88523311     0.17100
C333        C  0.12002022  0.74211192  0.00977068    -0.30500
H334        H  0.10842000  0.72911055  0.04791447     0.17100
H335        H  0.26228709  0.87623416  0.05751044     0.17100
H336        H  0.12706498  0.88864260  0.89045927     0.17200
H337        H  0.27121451  0.88764406  0.89459120     0.17100
C338        C  0.16494178  0.83947605  0.41733600     0.31000
C339        C  0.16166228  0.83535943  0.52349873     0.31000
C340        C  0.14239258  0.86171343  0.44394711    -0.05200
C341        C  0.14188374  0.79405863  0.44153333    -0.05900
C342        C  0.20866866  0.86143103  0.44538210    -0.05800
C343        C  0.13976071  0.85830150  0.49788057    -0.05200
C344        C  0.13915436  0.79227929  0.49517376    -0.05900
C345        C  0.20653589  0.85798722  0.49898580    -0.05800
C346        C  0.11529156  0.87583120  0.51395282    -0.31200
N347        N  0.10617131  0.89288287  0.47263882     0.15300
C348        C  0.12280334  0.88518548  0.42971196    -0.31200
H349        H  0.12074544  0.89607093  0.39140375     0.17200
C350        C  0.11488557  0.74979497  0.50896979    -0.30200
N351        N  0.10553549  0.72560786  0.46604256     0.14000
C352        C  0.12173746  0.75198739  0.42426749    -0.30200
C353        C  0.24788203  0.87864657  0.51730083    -0.30500
N354        N  0.27508980  0.89578394  0.47664362     0.14500
H355        H  0.25752696  0.88202317  0.55730888     0.17100
C356        C  0.25179626  0.88676994  0.43271105    -0.30500
H357        H  0.26540473  0.89794782  0.39467439     0.17100
H358        H  0.11902991  0.74144015  0.38473379     0.17100
H359        H  0.10397418  0.87570199  0.55268630     0.17200
H360        H  0.10540589  0.73691656  0.54763862     0.17100
O361        O  0.05789365  0.97935439  0.03529447    -0.87300
C362        C  0.06822524  0.56000659  0.91841025     0.88700
Mg363      Mg  0.00924121  0.91317213  0.03646175     1.58100
O364        O  0.02197193  0.57255644  0.03213456    -0.87000
O365        O  0.07771628  0.53552747  0.08417481    -0.74400
C366        C  0.32584541  0.90877794  0.98123339     0.93800
O367        O  0.03691916  0.95782775  0.91467966    -0.74200
O368        O  0.34448736  0.88704249  0.97300388    -0.81700
Mg369      Mg  0.09457710  0.50328942  0.96433726     1.58000
C370        C  0.41266436  0.58510001  0.02314587     0.93700
O371        O  0.15824946  0.54941717  0.00473701    -0.80000
H372        H  0.02671555  0.58678456  0.10709926    -0.05300
C373        C  0.43532769  0.99940917  0.92232333     0.88600
O374        O  0.46549945  0.92650407  0.08873254    -0.74500
O375        O  0.07624593  0.55164321  0.96186518    -0.87200
O376        O  0.45014968  0.60200812  0.00325209    -0.80000
C377        C  0.08598843  0.67219073  0.96850628     0.93800
C378        C  0.17824767  0.58787591  0.02137612     0.93700
Mg379      Mg  0.41009892  0.99365897  0.03627625     1.58000
O380        O  0.34601607  0.94740291  0.99718679    -0.80000
O381        O  0.46771225  0.53944121  0.08538547    -0.74200
O382        O  0.10514383  0.65275821  0.98544590    -0.80000
O383        O  0.11369388  0.95163570  0.96508047    -0.81800
O384        O  0.39880347  0.84402757  0.01514048    -0.80100
C385        C  0.50640153  0.56763826  0.07582958     0.88100
O386        O  0.42846987  0.94523854  0.03868719    -0.87200
O387        O  0.44633083  0.51691607  0.96477062    -0.87300
O388        O  0.42550356  0.96056323  0.91606493    -0.74400
Mg389      Mg  0.08873689  0.59071392  0.02993171     1.58000
O390        O  0.04582214  0.65300716  0.96009627    -0.81700
H391        H  0.06728062  0.97791422  0.11103443    -0.05500
O392        O  0.48221748  0.92427328  0.96734495    -0.87000
H393        H  0.47785405  0.91113312  0.89205912    -0.05300
H394        H  0.41948384  0.93884772  0.11501765    -0.05500
C395        C  0.99803169  0.92976653  0.92369350     0.88100
C396        C  0.06813358  0.49672761  0.07791082     0.88700
C397        C  0.43654757  0.93651565  0.08191624     0.88700
H398        H  0.43572198  0.51812558  0.88932863    -0.05500
O399        O  0.03891438  0.56940510  0.91099015    -0.74500
Mg400      Mg  0.41523415  0.90592871  0.97064997     1.58000
H401        H  0.08554708  0.55766852  0.88558840    -0.05500
C402        C  0.09189449  0.91167113  0.97559775     0.93700
O403        O  0.45834673  0.84308004  0.03759589    -0.81700
C404        C  0.41802748  0.82420479  0.03033619     0.93800
O405        O  0.15955254  0.60961893  0.02923709    -0.81700
Mg406      Mg  0.49500857  0.58299146  0.96242541     1.58200
O407        O  0.05405188  0.89445587  0.99455930    -0.80000
O408        O  0.39117106  0.54538399  0.03501907    -0.81700
O409        O  0.47727224  0.55810048  0.46415549    -0.87300
C410        C  0.06377793  0.57433784  0.57540665     0.88700
Mg411      Mg  0.41061910  0.51033963  0.46792186     1.58100
O412        O  0.07166499  0.52481282  0.46256229    -0.87000
O413        O  0.03155587  0.57773536  0.41124520    -0.74400
C414        C  0.40511663  0.82884856  0.52795717     0.93800
O415        O  0.46152879  0.54147548  0.58637057    -0.72800
O416        O  0.38411517  0.84794385  0.53751981    -0.81700
Mg417      Mg  0.00426053  0.59725933  0.53197293     1.58000
C418        C  0.08204381  0.91458082  0.47594750     0.93700
O419        O  0.04740719  0.65924920  0.48696318    -0.80000
H420        H  0.08104692  0.52553529  0.38650500    -0.05300
C421        C  0.50117320  0.94115114  0.57966909     0.88600
O422        O  0.42102061  0.96494881  0.41582363    -0.74500
O423        O  0.05312392  0.58008040  0.53214872    -0.87200
O424        O  0.10132801  0.95370298  0.49049956    -0.80000
C425        C  0.17377226  0.59300956  0.52071853     0.93800
C426        C  0.08535353  0.67986224  0.46846292     0.93700
Mg427      Mg  0.49014346  0.91212007  0.46823329     1.58000
O428        O  0.44376523  0.84876457  0.51103692    -0.80000
O429        O  0.03454919  0.96809344  0.41463679    -0.74200
O430        O  0.15334053  0.61053065  0.50211629    -0.80000
O431        O  0.45311571  0.61611587  0.53312644    -0.81800
O432        O  0.34059534  0.90180292  0.49874566    -0.80100
C433        C  0.06371030  0.00702984  0.42012869     0.88100
O434        O  0.44147307  0.93010722  0.46705015    -0.87200
O435        O  0.01731097  0.95123357  0.53612970    -0.87300
O436        O  0.46218868  0.93040299  0.58792169    -0.74400
Mg437      Mg  0.08942484  0.59143774  0.46140337     1.58000
O438        O  0.15549011  0.55281407  0.53067934    -0.81700
H439        H  0.47234659  0.56494589  0.38836698    -0.05500
O440        O  0.42374544  0.98537874  0.53777523    -0.87000
H441        H  0.41542409  0.98371624  0.61413435    -0.05300
H442        H  0.43162463  0.91730902  0.39178597    -0.05500
C443        C  0.43225900  0.50265227  0.58054254     0.88100
C444        C  0.99277367  0.56730945  0.42022822     0.88700
C445        C  0.43090951  0.93608125  0.42386589     0.88700
H446        H  0.02104474  0.94264676  0.61175660    -0.05500
O447        O  0.07345371  0.54537059  0.58386638    -0.74500
Mg448      Mg  0.40464948  0.91871169  0.53775992     1.58000
H449        H  0.06308696  0.59328160  0.60729934    -0.05500
C450        C  0.41280567  0.59441547  0.52612553     0.93700
O451        O  0.33994463  0.96016220  0.47019580    -0.81700
C452        C  0.32079809  0.92026022  0.48092581     0.93800
O453        O  0.10759652  0.66192948  0.45930755    -0.81700
Mg454      Mg  0.08452012  0.00011158  0.53255981     1.58200
O455        O  0.39407372  0.55581903  0.51030694    -0.80000
O456        O  0.04154688  0.89301948  0.46944673    -0.81700
C457        C  0.16394559  0.86366549  0.66752549     0.13700
C458        C  0.16508555  0.82930480  0.69190574     0.00700
C459        C  0.16911780  0.79924592  0.66161119     0.15600
C460        C  0.16972070  0.80229589  0.60778134     0.25100
C461        C  0.16316530  0.83370350  0.58270784    -0.41300
C462        C  0.16499496  0.86692207  0.61369302     0.32100
C463        C  0.16528479  0.82692968  0.74894894     0.00700
F464        F  0.17291671  0.76706993  0.68416328    -0.13600
F465        F  0.17230076  0.90465513  0.59270113    -0.14100
C466        C  0.12982344  0.82171967  0.77761259     0.15700
C467        C  0.13077059  0.82155788  0.83154686     0.25100
C468        C  0.16827142  0.82906983  0.85820914    -0.41200
C469        C  0.20091068  0.82778601  0.82896026     0.32000
C470        C  0.20035071  0.82875308  0.77503157     0.13700
F471        F  0.09368638  0.81545541  0.75326694    -0.13600
F472        F  0.23134607  0.82162299  0.85177657    -0.14100
F473        F  0.09395986  0.81146794  0.85737540    -0.16400
F474        F  0.23405714  0.83116921  0.74824593    -0.14900
F475        F  0.16409315  0.89538775  0.69602775    -0.14900
F476        F  0.17955655  0.77612015  0.58058759    -0.16400
C477        C  0.16524082  0.79789385  0.16730341     0.13700
C478        C  0.16839454  0.83396489  0.19207426     0.00700
C479        C  0.17539106  0.86960835  0.16238590     0.15600
C480        C  0.17676928  0.86820863  0.10853883     0.25100
C481        C  0.16828027  0.83001911  0.08287967    -0.41300
C482        C  0.16713826  0.79671032  0.11350110     0.32100
C483        C  0.16743601  0.83549329  0.24901898     0.00700
F484        F  0.18244625  0.90637240  0.18565384    -0.13600
F485        F  0.17272955  0.76535711  0.09252661    -0.14100
C486        C  0.19910194  0.83328909  0.27819008     0.15700
C487        C  0.19745011  0.83316828  0.33203258     0.25100
C488        C  0.16570915  0.83835845  0.35821265    -0.41200
C489        C  0.13122806  0.83520860  0.32844184     0.32000
C490        C  0.13304522  0.83564394  0.27449018     0.13700
F491        F  0.23129612  0.83035665  0.25442752    -0.13600
F492        F  0.09386406  0.82745481  0.35088838    -0.14100
F493        F  0.22507143  0.82460191  0.35810938    -0.16400
F494        F  0.09999956  0.83385525  0.24704749    -0.14900
F495        F  0.16129406  0.76405803  0.19541791    -0.14900
F496        F  0.18871886  0.90510965  0.08176181    -0.16400
C497        C  0.32858455  0.62904458  0.83667427     0.13700
C498        C  0.33104731  0.66352891  0.80820183     0.00700
C499        C  0.33046904  0.69727005  0.83459201     0.15600
C500        C  0.33031096  0.69788232  0.88857112     0.25100
C501        C  0.33385582  0.66626249  0.91748834    -0.41300
C502        C  0.32788142  0.62948275  0.89054983     0.32100
C503        C  0.33200716  0.66352115  0.75105031     0.00700
F504        F  0.32821846  0.72877954  0.80797103    -0.13600
F505        F  0.31859213  0.59268660  0.91596941    -0.14100
C506        C  0.29935971  0.62965531  0.72303717     0.15700
C507        C  0.30011905  0.63051756  0.66909403     0.25100
C508        C  0.33153529  0.66699311  0.64183838    -0.41200
C509        C  0.36723764  0.69769662  0.67023884     0.32000
C510        C  0.36673678  0.69674040  0.72417683     0.13700
F511        F  0.26671642  0.59553422  0.74786417    -0.13600
F512        F  0.40407470  0.72682503  0.64622393    -0.14100
F513        F  0.27195938  0.59424201  0.64402723    -0.16400
F514        F  0.40102148  0.72745709  0.75026730    -0.14900
F515        F  0.32673684  0.59474083  0.81236045    -0.14900
F516        F  0.32262937  0.72712166  0.91190783    -0.16400
C517        C  0.30899774  0.67434320  0.22501320     0.13700
C518        C  0.34298185  0.67387575  0.25114903     0.00700
C519        C  0.37684317  0.67548959  0.22222465     0.15600
C520        C  0.37515703  0.67457847  0.16830071     0.25100
C521        C  0.33798085  0.66852620  0.14195955    -0.41300
C522        C  0.30722723  0.67311337  0.17110956     0.32100
C523        C  0.34272048  0.67208788  0.30838580     0.00700
F524        F  0.41161126  0.67782382  0.24602986    -0.13600
F525        F  0.27738231  0.67996951  0.14782263    -0.14100
C526        C  0.30825339  0.63773901  0.33427657     0.15700
C527        C  0.30628640  0.63641991  0.38814629     0.25100
C528        C  0.33700582  0.67124912  0.41757244    -0.41200
C529        C  0.37477224  0.70190585  0.39151431     0.32000
C530        C  0.37689752  0.70331424  0.33753258     0.13700
F531        F  0.27713228  0.60450968  0.30722722    -0.13600
F532        F  0.41077973  0.72891526  0.41796394    -0.14100
F533        F  0.27630788  0.59940451  0.41103934    -0.16400
F534        F  0.41233785  0.73531540  0.31392136    -0.14900
F535        F  0.27811259  0.67743775  0.25182736    -0.14900
F536        F  0.41122263  0.68249978  0.14224441    -0.16400
C537        C  0.83551706  0.16572577  0.08289966     0.31000
C538        C  0.83659002  0.16773215  0.97666926     0.31000
C539        C  0.85795420  0.14354234  0.05608951    -0.05200
C540        C  0.79094399  0.14288663  0.05625401    -0.05900
C541        C  0.85746593  0.21053251  0.05746624    -0.05800
C542        C  0.86020138  0.14663597  0.00234012    -0.05200
C543        C  0.79228162  0.14438936  0.00241557    -0.05900
C544        C  0.85826358  0.21155471  0.00365005    -0.05800
C545        C  0.88397210  0.12842307  0.98595100    -0.31200
N546        N  0.89268551  0.11086730  0.02716393     0.15300
C547        C  0.87627231  0.11887308  0.07012219    -0.31200
H548        H  0.87760364  0.10750780  0.10844398     0.17200
C549        C  0.75086057  0.12326359  0.98468333    -0.30200
N550        N  0.72397345  0.10868051  0.02577188     0.14000
C551        C  0.74763415  0.11965202  0.06967746    -0.30200
C552        C  0.88235421  0.25400393  0.98922562    -0.30500
N553        N  0.89416419  0.27846385  0.03212153     0.14500
H554        H  0.89199104  0.26664740  0.95051357     0.17100
C555        C  0.87985661  0.25256806  0.07431076    -0.30500
H556        H  0.88558716  0.26343584  0.11386743     0.17100
H557        H  0.73408066  0.11094366  0.10809612     0.17100
H558        H  0.89316344  0.12658463  0.94668531     0.17200
H559        H  0.74086229  0.11941885  0.94477607     0.17100
C560        C  0.83329786  0.17165416  0.47662663     0.31000
C561        C  0.83074268  0.16955723  0.58282820     0.31000
C562        C  0.85415899  0.14888623  0.50329868    -0.05200
C563        C  0.85448563  0.21563907  0.50351077    -0.05900
C564        C  0.78807509  0.15007617  0.50138010    -0.05800
C565        C  0.85349074  0.14803958  0.55683155    -0.05200
C566        C  0.85294875  0.21495866  0.55746895    -0.05900
C567        C  0.78639498  0.14826256  0.55539505    -0.05800
C568        C  0.87546706  0.12743546  0.57233528    -0.31200
N569        N  0.88833046  0.11556306  0.52925959     0.15300
C570        C  0.87550667  0.12838811  0.48710821    -0.31200
H571        H  0.88202773  0.12375021  0.44756364     0.17200
C572        C  0.87010323  0.25739686  0.57295463    -0.30200
N573        N  0.88336739  0.28293977  0.53034173     0.14000
C574        C  0.87289528  0.25790551  0.48803489    -0.30200
C575        C  0.74314963  0.12850887  0.56896897    -0.30500
N576        N  0.71950710  0.11862486  0.52523074     0.14500
H577        H  0.72959101  0.12229116  0.60745067     0.17100
C578        C  0.74646189  0.13308336  0.48417675    -0.30500
H579        H  0.73604100  0.13081616  0.44463877     0.17100
H580        H  0.87743766  0.26992559  0.44882723     0.17100
H581        H  0.88165808  0.12158931  0.61152618     0.17200
H582        H  0.87254930  0.26899477  0.61192213     0.17100
C583        C  0.66672851  0.32828179  0.02358803     0.31000
C584        C  0.66967224  0.33106275  0.91733876     0.31000
C585        C  0.64383665  0.34976772  0.99720916    -0.05200
C586        C  0.71152993  0.35162409  0.99890462    -0.05900
C587        C  0.64526058  0.28461486  0.99611076    -0.05800
C588        C  0.64675307  0.35305090  0.94351160    -0.05200
C589        C  0.71369254  0.35367781  0.94509658    -0.05900
C590        C  0.64725884  0.28603136  0.94227229    -0.05800
C591        C  0.62839050  0.37760792  0.92897057    -0.31200
N592        N  0.61195465  0.38593685  0.97175028     0.15300
C593        C  0.62047236  0.36847936  0.01321615    -0.31200
H594        H  0.61148145  0.37073480  0.05245916     0.17200
C595        C  0.75708018  0.37768477  0.93258218    -0.30200
N596        N  0.78015461  0.38805781  0.97680373     0.14000
C597        C  0.75277401  0.37276082  0.01744346    -0.30200
C598        C  0.62511744  0.24410541  0.92489554    -0.30500
N599        N  0.60947654  0.21794202  0.96674534     0.14500
H600        H  0.62045223  0.23351285  0.88523326     0.17100
C601        C  0.62002130  0.24211197  0.00977094    -0.30500
H602        H  0.60842147  0.22911100  0.04791514     0.17100
H603        H  0.76228996  0.37623484  0.05750761     0.17100
H604        H  0.62706594  0.38864224  0.89045984     0.17200
H605        H  0.77121475  0.38764403  0.89458817     0.17100
C606        C  0.66494258  0.33947597  0.41733550     0.31000
C607        C  0.66166282  0.33535916  0.52349826     0.31000
C608        C  0.64239375  0.36171379  0.44394661    -0.05200
C609        C  0.64188386  0.29405848  0.44153279    -0.05900
C610        C  0.70866943  0.36143041  0.44538184    -0.05800
C611        C  0.63976184  0.35830183  0.49788008    -0.05200
C612        C  0.63915441  0.29227913  0.49517321    -0.05900
C613        C  0.70653649  0.35798642  0.49898550    -0.05800
C614        C  0.61529253  0.37583132  0.51395239    -0.31200
N615        N  0.60617208  0.39288285  0.47263841     0.15300
C616        C  0.62280414  0.38518555  0.42971150    -0.31200
H617        H  0.62074587  0.39607067  0.39140322     0.17200
C618        C  0.61488507  0.24979490  0.50896931    -0.30200
N619        N  0.60553462  0.22560771  0.46604216     0.14000
C620        C  0.62173699  0.25198716  0.42426704    -0.30200
C621        C  0.74788259  0.37864573  0.51730073    -0.30500
N622        N  0.77509053  0.39578341  0.47664376     0.14500
H623        H  0.75752737  0.38202231  0.55730892     0.17100
C624        C  0.75179711  0.38676959  0.43271107    -0.30500
H625        H  0.76540568  0.39794791  0.39467460     0.17100
H626        H  0.61902943  0.24143982  0.38473344     0.17100
H627        H  0.60397508  0.37570192  0.55268582     0.17200
H628        H  0.60540531  0.23691659  0.54763817     0.17100
O629        O  0.55789420  0.47935430  0.03529432    -0.87300
C630        C  0.56822295  0.06000632  0.91841133     0.88700
Mg631      Mg  0.50924186  0.41317178  0.03646071     1.58100
O632        O  0.52197098  0.07255609  0.03213685    -0.87000
O633        O  0.57771598  0.03552726  0.08417561    -0.74400
C634        C  0.82584703  0.40877839  0.98122927     0.93800
O635        O  0.53692162  0.45782784  0.91467890    -0.74200
O636        O  0.84448899  0.38704286  0.97300030    -0.81700
Mg637      Mg  0.59457545  0.00328934  0.96433679     1.58000
C638        C  0.91266336  0.08509967  0.02315030     0.93700
O639        O  0.65824848  0.04941721  0.00473512    -0.80000
H640        H  0.52671544  0.08678478  0.10710140    -0.05300
C641        C  0.93533010  0.49940935  0.92231958     0.88600
O642        O  0.96549919  0.42650341  0.08873022    -0.74500
O643        O  0.57624446  0.05164318  0.96186598    -0.87200
O644        O  0.95014873  0.10200795  0.00325663    -0.80000
C645        C  0.58598751  0.17219040  0.96850755     0.93800
C646        C  0.67824671  0.08787558  0.02137544     0.93700
Mg647      Mg  0.91010000  0.49365922  0.03627208     1.58000
O648        O  0.84601767  0.44740360  0.99718179    -0.80000
O649        O  0.96771189  0.03944127  0.08538874    -0.74200
O650        O  0.60514264  0.15275770  0.98544737    -0.80000
O651        O  0.61369590  0.45163594  0.96508198    -0.81800
O652        O  0.89880457  0.34402735  0.01513743    -0.80100
C653        C  0.00640106  0.06763829  0.07583214     0.88100
O654        O  0.92847090  0.44523861  0.03868362    -0.87200
O655        O  0.94632898  0.01691586  0.96477428    -0.87300
O656        O  0.92550599  0.46056337  0.91606148    -0.74400
Mg657      Mg  0.58873595  0.09071354  0.02993298     1.58000
O658        O  0.54582108  0.15300711  0.96009819    -0.81700
H659        H  0.56727987  0.47791383  0.11103559    -0.05500
O660        O  0.98221919  0.42427301  0.96734299    -0.87000
H661        H  0.97785707  0.41113314  0.89205715    -0.05300
H662        H  0.91948311  0.43884690  0.11501375    -0.05500
C663        C  0.49803402  0.42976654  0.92369182     0.88100
C664        C  0.56813354  0.99672727  0.07791151     0.88700
C665        C  0.93654755  0.43651521  0.08191298     0.88700
H666        H  0.93571917  0.01812538  0.88933256    -0.05500
O667        O  0.53891177  0.06940451  0.91099207    -0.74500
Mg668      Mg  0.91523577  0.40592870  0.97064676     1.58000
H669        H  0.58554426  0.05766819  0.88558901    -0.05500
C670        C  0.59189643  0.41167128  0.97559875     0.93700
O671        O  0.95834736  0.34307956  0.03759465    -0.81700
C672        C  0.91802819  0.32420445  0.03033413     0.93800
O673        O  0.65955156  0.10961841  0.02923779    -0.81700
Mg674      Mg  0.99500690  0.08299123  0.96242852     1.58200
O675        O  0.55405350  0.39445584  0.99455951    -0.80000
O676        O  0.89117007  0.04538363  0.03502344    -0.81700
O677        O  0.97727155  0.05810050  0.46415560    -0.87300
C678        C  0.56377612  0.07433732  0.57540752     0.88700
Mg679      Mg  0.91061838  0.01033971  0.46792176     1.58100
O680        O  0.57166460  0.02481311  0.46256331    -0.87000
O681        O  0.53155549  0.07773540  0.41124579    -0.74400
C682        C  0.90511738  0.32884912  0.52796005     0.93800
O683        O  0.96152727  0.04147550  0.58637030    -0.72800
O684        O  0.88411598  0.34794452  0.53752209    -0.81700
Mg685      Mg  0.50425945  0.09725941  0.53197283     1.58000
C686        C  0.58204430  0.41458054  0.47594728     0.93700
O687        O  0.54740626  0.15924906  0.48696279    -0.80000
H688        H  0.58104690  0.02553642  0.38650617    -0.05300
C689        C  0.00117445  0.44115229  0.57966951     0.88600
O690        O  0.92102123  0.46494851  0.41582410    -0.74500
O691        O  0.55312277  0.08008039  0.53214942    -0.87200
O692        O  0.60132852  0.45370295  0.49049829    -0.80000
C693        C  0.67377144  0.09301001  0.52072053     0.93800
C694        C  0.58535270  0.17986210  0.46846280     0.93700
Mg695      Mg  0.99014387  0.41211963  0.46823433     1.58000
O696        O  0.94376595  0.34876486  0.51103963    -0.80000
O697        O  0.53454923  0.46809252  0.41463678    -0.74200
O698        O  0.65333964  0.11053094  0.50211808    -0.80000
O699        O  0.95311474  0.11611617  0.53312525    -0.81800
O700        O  0.84059622  0.40180294  0.49874638    -0.80100
C701        C  0.56371028  0.50702904  0.42012796     0.88100
O702        O  0.94147362  0.43010697  0.46705089    -0.87200
O703        O  0.51731182  0.45123396  0.53612986    -0.87300
O704        O  0.96218994  0.43040412  0.58792237    -0.74400
Mg705      Mg  0.58942423  0.09143786  0.46140445     1.58000
O706        O  0.65548938  0.05281448  0.53068127    -0.81700
H707        H  0.97234647  0.06494587  0.38836703    -0.05500
O708        O  0.92374633  0.48537900  0.53777539    -0.87000
H709        H  0.91542530  0.48371634  0.61413457    -0.05300
H710        H  0.93162517  0.41730860  0.39178675    -0.05500
C711        C  0.93225780  0.00265212  0.58054230     0.88100
C712        C  0.49277323  0.06730944  0.42022846     0.88700
C713        C  0.93091008  0.43608093  0.42386655     0.88700
H714        H  0.52104628  0.44264859  0.61175696    -0.05500
O715        O  0.57345189  0.04537003  0.58386716    -0.74500
Mg716      Mg  0.90465041  0.41871218  0.53776082     1.58000
H717        H  0.56308462  0.09328061  0.60730029    -0.05500
C718        C  0.91280469  0.09441570  0.52612453     0.93700
O719        O  0.83994526  0.46016197  0.47019611    -0.81700
C720        C  0.82079884  0.42026001  0.48092624     0.93800
O721        O  0.60759585  0.16192942  0.45930816    -0.81700
Mg722      Mg  0.58452101  0.50011164  0.53255880     1.58200
O723        O  0.89407267  0.05581899  0.51030683    -0.80000
O724        O  0.54154723  0.39301883  0.46944782    -0.81700
C725        C  0.66394656  0.36366529  0.66752504     0.13700
C726        C  0.66508593  0.32930430  0.69190521     0.00700
C727        C  0.66911759  0.29924509  0.66161067     0.15600
C728        C  0.66972052  0.30229505  0.60778083     0.25100
C729        C  0.66316562  0.33370302  0.58270735    -0.41300
C730        C  0.66499577  0.36692179  0.61369257     0.32100
C731        C  0.66528519  0.32692914  0.74894834     0.00700
F732        F  0.67291611  0.26706890  0.68416283    -0.13600
F733        F  0.67230190  0.40465494  0.59270070    -0.14100
C734        C  0.62982397  0.32171944  0.77761206     0.15700
C735        C  0.63077125  0.32155771  0.83154634     0.25100
C736        C  0.66827193  0.32906908  0.85820851    -0.41200
C737        C  0.70091105  0.32778505  0.82895947     0.32000
C738        C  0.70035108  0.32875237  0.77503083     0.13700
F739        F  0.59368695  0.31545548  0.75326651    -0.13600
F740        F  0.73134639  0.32162175  0.85177551    -0.14100
F741        F  0.59396065  0.31146805  0.85737497    -0.16400
F742        F  0.73405740  0.33116831  0.74824514    -0.14900
F743        F  0.66409472  0.39538782  0.69602737    -0.14900
F744        F  0.67955585  0.27611890  0.58058710    -0.16400
C745        C  0.66524280  0.29789351  0.16730268     0.13700
C746        C  0.66839595  0.33396428  0.19207362     0.00700
C747        C  0.67539294  0.36960797  0.16238540     0.15600
C748        C  0.67677195  0.36820861  0.10853834     0.25100
C749        C  0.66828304  0.33001920  0.08287906    -0.41300
C750        C  0.66714085  0.29671031  0.11350035     0.32100
C751        C  0.66743701  0.33549249  0.24901836     0.00700
F752        F  0.68244781  0.40637188  0.18565345    -0.13600
F753        F  0.67273224  0.26535722  0.09252563    -0.14100
C754        C  0.69910332  0.33328915  0.27818962     0.15700
C755        C  0.69745151  0.33316865  0.33203212     0.25100
C756        C  0.66571018  0.33835841  0.35821207    -0.41200
C757        C  0.63122890  0.33520798  0.32844108     0.32000
C758        C  0.63304592  0.33564273  0.27448937     0.13700
F759        F  0.73129795  0.33035733  0.25442723    -0.13600
F760        F  0.59386500  0.32745454  0.35088759    -0.14100
F761        F  0.72507319  0.32460286  0.35810903    -0.16400
F762        F  0.60000005  0.33385339  0.24704648    -0.14900
F763        F  0.66129600  0.26405768  0.19541715    -0.14900
F764        F  0.68872208  0.40510978  0.08176142    -0.16400
C765        C  0.82858572  0.12904206  0.83667589     0.13700
C766        C  0.83105016  0.16352676  0.80820253     0.00700
C767        C  0.83047225  0.19726850  0.83459164     0.15600
C768        C  0.83031259  0.19788091  0.88857065     0.25100
C769        C  0.83385590  0.16626075  0.91748906    -0.41300
C770        C  0.82788134  0.12948054  0.89055144     0.32100
C771        C  0.83201004  0.16351857  0.75105106     0.00700
F772        F  0.82822326  0.22877836  0.80796951    -0.13600
F773        F  0.81859091  0.09268440  0.91597184    -0.14100
C774        C  0.79936131  0.12965376  0.72303816     0.15700
C775        C  0.80011939  0.13051685  0.66909504     0.25100
C776        C  0.83153571  0.16699238  0.64183933    -0.41200
C777        C  0.86723943  0.19769445  0.67023922     0.32000
C778        C  0.86673987  0.19673729  0.72417722     0.13700
F779        F  0.76671786  0.09553294  0.74786536    -0.13600
F780        F  0.90407626  0.22682247  0.64622354    -0.14100
F781        F  0.77195838  0.09424194  0.64402825    -0.16400
F782        F  0.90102579  0.22745265  0.75026731    -0.14900
F783        F  0.82673758  0.09473772  0.81236308    -0.14900
F784        F  0.82263076  0.22712066  0.91190590    -0.16400
C785        C  0.80899676  0.17434507  0.22501376     0.13700
C786        C  0.84298095  0.17387785  0.25114973     0.00700
C787        C  0.87684221  0.17549149  0.22222544     0.15600
C788        C  0.87515598  0.17458011  0.16830152     0.25100
C789        C  0.83797959  0.16852724  0.14196032    -0.41300
C790        C  0.80722591  0.17311442  0.17111014     0.32100
C791        C  0.84271947  0.17209010  0.30838651     0.00700
F792        F  0.91161021  0.17782552  0.24603066    -0.13600
F793        F  0.77738064  0.17996988  0.14782298    -0.14100
C794        C  0.80825243  0.13774110  0.33427717     0.15700
C795        C  0.80628532  0.13642187  0.38814690     0.25100
C796        C  0.83700472  0.17125090  0.41757328    -0.41200
C797        C  0.87477105  0.20190797  0.39151514     0.32000
C798        C  0.87689637  0.20331651  0.33753338     0.13700
F799        F  0.77713166  0.10451162  0.30722765    -0.13600
F800        F  0.91077852  0.22891749  0.41796474    -0.14100
F801        F  0.77630673  0.09940642  0.41103975    -0.16400
F802        F  0.91233679  0.23531761  0.31392222    -0.14900
F803        F  0.77811180  0.17744003  0.25182778    -0.14900
F804        F  0.91122158  0.18250142  0.14224520    -0.16400
C805        C  0.83551842  0.66572549  0.08289888     0.31000
C806        C  0.83659069  0.66773324  0.97666852     0.31000
C807        C  0.85795571  0.64354269  0.05608755    -0.05200
C808        C  0.79094524  0.64288646  0.05625360    -0.05900
C809        C  0.85746682  0.71053252  0.05746630    -0.05800
C810        C  0.86020254  0.64663695  0.00233816    -0.05200
C811        C  0.79228251  0.64439000  0.00241523    -0.05900
C812        C  0.85826409  0.71155543  0.00365011    -0.05800
C813        C  0.88397314  0.62842415  0.98594809    -0.31200
N814        N  0.89268676  0.61086785  0.02716029     0.15300
C815        C  0.87627384  0.61887323  0.07011917    -0.31200
H816        H  0.87760522  0.60750740  0.10844051     0.17200
C817        C  0.75086133  0.62326471  0.98468339    -0.30200
N818        N  0.72397449  0.60868100  0.02577217     0.14000
C819        C  0.74763549  0.61965166  0.06967746    -0.30200
C820        C  0.88235393  0.75400487  0.98922645    -0.30500
N821        N  0.89416392  0.77846419  0.03212281     0.14500
H822        H  0.89199024  0.76664894  0.95051443     0.17100
C823        C  0.87985706  0.75256784  0.07431166    -0.30500
H824        H  0.88558772  0.76343500  0.11386841     0.17100
H825        H  0.73408233  0.61094273  0.10809619     0.17100
H826        H  0.89316424  0.62658607  0.94668199     0.17200
H827        H  0.74086283  0.61942072  0.94477633     0.17100
C828        C  0.83329878  0.67165309  0.47662563     0.31000
C829        C  0.83074303  0.66955723  0.58282716     0.31000
C830        C  0.85415999  0.64888569  0.50329860    -0.05200
C831        C  0.85448623  0.71563831  0.50350910    -0.05900
C832        C  0.78807592  0.65007512  0.50137870    -0.05800
C833        C  0.85349153  0.64803953  0.55683150    -0.05200
C834        C  0.85294887  0.71495838  0.55746726    -0.05900
C835        C  0.78639556  0.64826204  0.55539362    -0.05800
C836        C  0.87546791  0.62743558  0.57233584    -0.31200
N837        N  0.88833144  0.61556285  0.52926051     0.15300
C838        C  0.87550770  0.62838751  0.48710881    -0.31200
H839        H  0.88202880  0.62374925  0.44756433     0.17200
C840        C  0.87010236  0.75739659  0.57295228    -0.30200
N841        N  0.88336690  0.78293921  0.53033916     0.14000
C842        C  0.87289573  0.75790462  0.48803267    -0.30200
C843        C  0.74315022  0.62850839  0.56896727    -0.30500
N844        N  0.71950790  0.61862412  0.52522888     0.14500
H845        H  0.72959147  0.62229091  0.60744891     0.17100
C846        C  0.74646281  0.63308216  0.48417496    -0.30500
H847        H  0.73604208  0.63081467  0.44463696     0.17100
H848        H  0.87743866  0.76992436  0.44882473     0.17100
H849        H  0.88165885  0.62158974  0.61152704     0.17200
H850        H  0.87254748  0.76899477  0.61191952     0.17100
C851        C  0.66672628  0.82828183  0.02358861     0.31000
C852        C  0.66967154  0.83106340  0.91733938     0.31000
C853        C  0.64383478  0.84976785  0.99720914    -0.05200
C854        C  0.71152802  0.85162429  0.99890613    -0.05900
C855        C  0.64525891  0.78461505  0.99611098    -0.05800
C856        C  0.64675197  0.85305136  0.94351166    -0.05200
C857        C  0.71369146  0.85367826  0.94509812    -0.05900
C858        C  0.64725799  0.78603192  0.94227258    -0.05800
C859        C  0.62838934  0.87760823  0.92897011    -0.31200
N860        N  0.61195279  0.88593675  0.97174942     0.15300
C861        C  0.62047012  0.86847922  0.01321560    -0.31200
H862        H  0.61147870  0.87073441  0.05245832     0.17200
C863        C  0.75707936  0.87768481  0.93258475    -0.30200
N864        N  0.78015306  0.88805757  0.97680694     0.14000
C865        C  0.75277177  0.87276059  0.01744595    -0.30200
C866        C  0.62511782  0.74410607  0.92489532    -0.30500
N867        N  0.60947685  0.71794235  0.96674482     0.14500
H868        H  0.62045363  0.73351384  0.88523311     0.17100
C869        C  0.62002020  0.74211193  0.00977067    -0.30500
H870        H  0.60841990  0.72911057  0.04791446     0.17100
H871        H  0.76228703  0.87623417  0.05751044     0.17100
H872        H  0.62706511  0.88864262  0.89045925     0.17200
H873        H  0.77121459  0.88764402  0.89459119     0.17100
C874        C  0.66494183  0.83947604  0.41733598     0.31000
C875        C  0.66166229  0.83535943  0.52349873     0.31000
C876        C  0.64239259  0.86171340  0.44394709    -0.05200
C877        C  0.64188383  0.79405863  0.44153332    -0.05900
C878        C  0.70866869  0.86143101  0.44538212    -0.05800
C879        C  0.63976070  0.85830147  0.49788054    -0.05200
C880        C  0.63915448  0.79227928  0.49517375    -0.05900
C881        C  0.70653589  0.85798728  0.49898581    -0.05800
C882        C  0.61529160  0.87583121  0.51395283    -0.31200
N883        N  0.60617138  0.89288290  0.47263882     0.15300
C884        C  0.62280334  0.88518546  0.42971195    -0.31200
H885        H  0.62074541  0.89607087  0.39140373     0.17200
C886        C  0.61488573  0.74979496  0.50896978    -0.30200
N887        N  0.60553559  0.72560786  0.46604256     0.14000
C888        C  0.62173747  0.75198738  0.42426747    -0.30200
C889        C  0.74788202  0.87864661  0.51730087    -0.30500
N890        N  0.77508983  0.89578386  0.47664366     0.14500
H891        H  0.75752691  0.88202323  0.55730894     0.17100
C892        C  0.75179630  0.88676979  0.43271105    -0.30500
H893        H  0.76540477  0.89794751  0.39467441     0.17100
H894        H  0.61902975  0.74144015  0.38473377     0.17100
H895        H  0.60397424  0.87570201  0.55268625     0.17200
H896        H  0.60540604  0.73691654  0.54763863     0.17100
O897        O  0.55789372  0.97935437  0.03529447    -0.87300
C898        C  0.56822528  0.56000657  0.91841026     0.88700
Mg899      Mg  0.50924117  0.91317211  0.03646161     1.58100
O900        O  0.52197203  0.57255640  0.03213461    -0.87000
O901        O  0.57771644  0.53552749  0.08417482    -0.74400
C902        C  0.82584544  0.90877794  0.98123343     0.93800
O903        O  0.53691908  0.95782775  0.91467964    -0.74200
O904        O  0.84448742  0.88704252  0.97300389    -0.81700
Mg905      Mg  0.59457712  0.50328941  0.96433726     1.58000
C906        C  0.91266437  0.58510002  0.02314587     0.93700
O907        O  0.65824946  0.54941718  0.00473702    -0.80000
H908        H  0.52671561  0.58678451  0.10709937    -0.05300
C909        C  0.93532761  0.99940916  0.92232332     0.88600
O910        O  0.96549948  0.92650409  0.08873271    -0.74500
O911        O  0.57624594  0.55164317  0.96186520    -0.87200
O912        O  0.95014968  0.60200817  0.00325205    -0.80000
C913        C  0.58598854  0.67219073  0.96850629     0.93800
C914        C  0.67824771  0.58787593  0.02137610     0.93700
Mg915      Mg  0.91009894  0.99365897  0.03627624     1.58000
O916        O  0.84601607  0.94740292  0.99718681    -0.80000
O917        O  0.96771225  0.53944113  0.08538553    -0.74200
O918        O  0.60514401  0.65275828  0.98544589    -0.80000
O919        O  0.61369392  0.95163571  0.96508045    -0.81800
O920        O  0.89880356  0.84402756  0.01514054    -0.80100
C921        C  0.00640149  0.56763830  0.07582957     0.88100
O922        O  0.92846991  0.94523850  0.03868725    -0.87200
O923        O  0.94633079  0.51691607  0.96477061    -0.87300
O924        O  0.92550354  0.96056323  0.91606494    -0.74400
Mg925      Mg  0.58873701  0.59071393  0.02993171     1.58000
O926        O  0.54582225  0.65300709  0.96009627    -0.81700
H927        H  0.56728058  0.97791427  0.11103447    -0.05500
O928        O  0.98221763  0.92427331  0.96734508    -0.87000
H929        H  0.97785411  0.91113307  0.89205931    -0.05300
H930        H  0.91948380  0.93884768  0.11501772    -0.05500
C931        C  0.49803159  0.92976655  0.92369338     0.88100
C932        C  0.56813354  0.49672758  0.07791082     0.88700
C933        C  0.93654758  0.93651563  0.08191633     0.88700
H934        H  0.93572228  0.51812559  0.88932853    -0.05500
O935        O  0.53891444  0.56940512  0.91099012    -0.74500
Mg936      Mg  0.91523425  0.90592871  0.97065001     1.58000
H937        H  0.58554712  0.55766849  0.88558845    -0.05500
C938        C  0.59189452  0.91167112  0.97559766     0.93700
O939        O  0.95834683  0.84308005  0.03759588    -0.81700
C940        C  0.91802758  0.82420479  0.03033618     0.93800
O941        O  0.65955262  0.60961898  0.02923708    -0.81700
Mg942      Mg  0.99500849  0.58299148  0.96242539     1.58200
O943        O  0.55405185  0.89445581  0.99455910    -0.80000
O944        O  0.89117115  0.54538400  0.03501911    -0.81700
O945        O  0.97727229  0.55810050  0.46415548    -0.87300
C946        C  0.56377795  0.57433788  0.57540666     0.88700
Mg947      Mg  0.91061913  0.51033964  0.46792186     1.58100
O948        O  0.57166490  0.52481281  0.46256230    -0.87000
O949        O  0.53155580  0.57773539  0.41124517    -0.74400
C950        C  0.90511662  0.82884857  0.52795733     0.93800
O951        O  0.96152874  0.54147548  0.58637056    -0.72800
O952        O  0.88411518  0.84794386  0.53751990    -0.81700
Mg953      Mg  0.50426054  0.59725932  0.53197294     1.58000
C954        C  0.58204383  0.91458082  0.47594751     0.93700
O955        O  0.54740729  0.65924920  0.48696319    -0.80000
H956        H  0.58104681  0.52553531  0.38650500    -0.05300
C957        C  0.00117333  0.94115114  0.57966909     0.88600
O958        O  0.92102052  0.96494880  0.41582365    -0.74500
O959        O  0.55312391  0.58008040  0.53214873    -0.87200
O960        O  0.60132800  0.95370297  0.49049959    -0.80000
C961        C  0.67377227  0.59300954  0.52071862     0.93800
C962        C  0.58535364  0.67986224  0.46846291     0.93700
Mg963      Mg  0.99014347  0.91212007  0.46823329     1.58000
O964        O  0.94376521  0.84876456  0.51103699    -0.80000
O965        O  0.53454909  0.96809346  0.41463682    -0.74200
O966        O  0.65334055  0.61053068  0.50211648    -0.80000
O967        O  0.95311571  0.61611592  0.53312647    -0.81800
O968        O  0.84059543  0.90180294  0.49874563    -0.80100
C969        C  0.56371027  0.00702985  0.42012864     0.88100
O970        O  0.94147309  0.93010724  0.46705011    -0.87200
O971        O  0.51731088  0.95123358  0.53612971    -0.87300
O972        O  0.96218881  0.93040297  0.58792171    -0.74400
Mg973      Mg  0.58942483  0.59143775  0.46140342     1.58000
O974        O  0.65549011  0.55281404  0.53067935    -0.81700
H975        H  0.97234673  0.56494586  0.38836700    -0.05500
O976        O  0.92374557  0.98537876  0.53777520    -0.87000
H977        H  0.91542393  0.98371624  0.61413427    -0.05300
H978        H  0.93162452  0.91730901  0.39178594    -0.05500
C979        C  0.93225895  0.50265227  0.58054255     0.88100
C980        C  0.49277362  0.56730946  0.42022825     0.88700
C981        C  0.93090945  0.93608124  0.42386588     0.88700
H982        H  0.52104459  0.94264674  0.61175662    -0.05500
O983        O  0.57345367  0.54537057  0.58386638    -0.74500
Mg984      Mg  0.90464958  0.91871170  0.53775993     1.58000
H985        H  0.56308712  0.59328169  0.60729926    -0.05500
C986        C  0.91280567  0.59441547  0.52612556     0.93700
O987        O  0.83994460  0.96016218  0.47019585    -0.81700
C988        C  0.82079812  0.92026020  0.48092583     0.93800
O989        O  0.60759661  0.66192949  0.45930756    -0.81700
Mg990      Mg  0.58452012  0.00011157  0.53255981     1.58200
O991        O  0.89407379  0.55581904  0.51030693    -0.80000
O992        O  0.54154690  0.89301947  0.46944671    -0.81700
C993        C  0.66394564  0.86366551  0.66752551     0.13700
C994        C  0.66508556  0.82930479  0.69190575     0.00700
C995        C  0.66911781  0.79924591  0.66161119     0.15600
C996        C  0.66972074  0.80229592  0.60778135     0.25100
C997        C  0.66316528  0.83370350  0.58270785    -0.41300
C998        C  0.66499493  0.86692207  0.61369303     0.32100
C999        C  0.66528483  0.82692967  0.74894893     0.00700
F1000       F  0.67291687  0.76706998  0.68416326    -0.13600
F1001       F  0.67230067  0.90465511  0.59270115    -0.14100
C1002       C  0.62982347  0.82171968  0.77761259     0.15700
C1003       C  0.63077067  0.82155790  0.83154686     0.25100
C1004       C  0.66827152  0.82906983  0.85820913    -0.41200
C1005       C  0.70091078  0.82778600  0.82896024     0.32000
C1006       C  0.70035079  0.82875308  0.77503156     0.13700
F1007       F  0.59368637  0.81545543  0.75326697    -0.13600
F1008       F  0.73134620  0.82162300  0.85177653    -0.14100
F1009       F  0.59395996  0.81146793  0.85737545    -0.16400
F1010       F  0.73405723  0.83116921  0.74824594    -0.14900
F1011       F  0.66409309  0.89538773  0.69602775    -0.14900
F1012       F  0.67955652  0.77612014  0.58058759    -0.16400
C1013       C  0.66524073  0.79789381  0.16730341     0.13700
C1014       C  0.66839456  0.83396488  0.19207427     0.00700
C1015       C  0.67539121  0.86960838  0.16238590     0.15600
C1016       C  0.67676941  0.86820866  0.10853883     0.25100
C1017       C  0.66828025  0.83001910  0.08287967    -0.41300
C1018       C  0.66713815  0.79671028  0.11350110     0.32100
C1019       C  0.66743606  0.83549330  0.24901898     0.00700
F1020       F  0.68244646  0.90637244  0.18565385    -0.13600
F1021       F  0.67272946  0.76535709  0.09252661    -0.14100
C1022       C  0.69910204  0.83328910  0.27819006     0.15700
C1023       C  0.69745021  0.83316827  0.33203257     0.25100
C1024       C  0.66570922  0.83835843  0.35821264    -0.41200
C1025       C  0.63122811  0.83520858  0.32844184     0.32000
C1026       C  0.63304526  0.83564394  0.27449019     0.13700
F1027       F  0.73129625  0.83035665  0.25442752    -0.13600
F1028       F  0.59386409  0.82745482  0.35088835    -0.14100
F1029       F  0.72507156  0.82460191  0.35810936    -0.16400
F1030       F  0.59999957  0.83385526  0.24704752    -0.14900
F1031       F  0.66129396  0.76405800  0.19541792    -0.14900
F1032       F  0.68871905  0.90510967  0.08176180    -0.16400
C1033       C  0.82858451  0.62904458  0.83667431     0.13700
C1034       C  0.83104732  0.66352893  0.80820187     0.00700
C1035       C  0.83046900  0.69727005  0.83459204     0.15600
C1036       C  0.83031089  0.69788231  0.88857114     0.25100
C1037       C  0.83385579  0.66626249  0.91748836    -0.41300
C1038       C  0.82788133  0.62948273  0.89054986     0.32100
C1039       C  0.83200715  0.66352115  0.75105035     0.00700
F1040       F  0.82821838  0.72877951  0.80797104    -0.13600
F1041       F  0.81859204  0.59268659  0.91596947    -0.14100
C1042       C  0.79935967  0.62965531  0.72303720     0.15700
C1043       C  0.80011907  0.63051753  0.66909406     0.25100
C1044       C  0.83153528  0.66699311  0.64183840    -0.41200
C1045       C  0.86723764  0.69769662  0.67023886     0.32000
C1046       C  0.86673680  0.69674037  0.72417685     0.13700
F1047       F  0.76671633  0.59553422  0.74786418    -0.13600
F1048       F  0.90407476  0.72682495  0.64622398    -0.14100
F1049       F  0.77195934  0.59424201  0.64402725    -0.16400
F1050       F  0.90102156  0.72745698  0.75026729    -0.14900
F1051       F  0.82673675  0.59474082  0.81236048    -0.14900
F1052       F  0.82262928  0.72712166  0.91190784    -0.16400
C1053       C  0.80899773  0.67434320  0.22501321     0.13700
C1054       C  0.84298186  0.67387575  0.25114904     0.00700
C1055       C  0.87684321  0.67548959  0.22222467     0.15600
C1056       C  0.87515708  0.67457849  0.16830073     0.25100
C1057       C  0.83798089  0.66852621  0.14195957    -0.41300
C1058       C  0.80722725  0.67311336  0.17110957     0.32100
C1059       C  0.84272045  0.67208791  0.30838579     0.00700
F1060       F  0.91161133  0.67782381  0.24602984    -0.13600
F1061       F  0.77738237  0.67996953  0.14782259    -0.14100
C1062       C  0.80825332  0.63773903  0.33427656     0.15700
C1063       C  0.80628635  0.63641991  0.38814628     0.25100
C1064       C  0.83700580  0.67124909  0.41757243    -0.41200
C1065       C  0.87477220  0.70190586  0.39151430     0.32000
C1066       C  0.87689750  0.70331426  0.33753257     0.13700
F1067       F  0.77713220  0.60450970  0.30722722    -0.13600
F1068       F  0.91077967  0.72891529  0.41796395    -0.14100
F1069       F  0.77630780  0.59940452  0.41103934    -0.16400
F1070       F  0.91233793  0.73531532  0.31392138    -0.14900
F1071       F  0.77811255  0.67743775  0.25182733    -0.14900
F1072       F  0.91122268  0.68249976  0.14224443    -0.16400
loop_ 
_geom_bond_atom_site_label_1 
_geom_bond_atom_site_label_2 
_geom_bond_distance 
_geom_bond_site_symmetry_2 
_ccdc_geom_bond_type 
C1            C3   1.552       .  S
C1            C5   1.538       .  S
C1            C4   1.552       .  S
C1          C253   1.535       .  S
C2            C6   1.540   1_556  S
C2            C8   1.536   1_556  S
C2            C7   1.528   1_556  S
C2          C233   1.537       .  S
C3           C11   1.388       .  A
C3            C6   1.396       .  A
C4           C15   1.391       .  A
C4            C7   1.397       .  A
C5           C19   1.382       .  A
C5            C8   1.396       .  A
C6            C9   1.376   1_554  A
C7           C13   1.370   1_554  A
C8           C16   1.374   1_554  A
C9           N10   1.352   1_556  A
C9           H22   1.082       .  S
N10          C11   1.356       .  A
N10         C102   1.429       .  S
C11          H12   1.082       .  S
C13          N14   1.351   1_556  A
C13          H23   1.083       .  S
N14          C15   1.359       .  A
N14         C110   1.429       .  S
C15          H21   1.081       .  S
C16          N17   1.352   1_556  A
C16          H18   1.082       .  S
N17          C19   1.355       .  A
N17         C136   1.424       .  S
C19          H20   1.082       .  S
C24          C26   1.521       .  S
C24          C28   1.543       .  S
C24          C27   1.540       .  S
C24         C260   1.537       .  S
C25          C29   1.532       .  S
C25          C31   1.555       .  S
C25          C30   1.553       .  S
C25         C240   1.534       .  S
C26          C34   1.367       .  A
C26          C29   1.388       .  A
C27          C38   1.375       .  A
C27          C30   1.400       .  A
C28          C42   1.378       .  A
C28          C31   1.401       .  A
C29          C32   1.382       .  A
C30          C36   1.390       .  A
C31          C39   1.390       .  A
C32          N33   1.357       .  A
C32          H45   1.082       .  S
N33          C34   1.351       .  A
N33         C182   1.421       .  S
C34          H35   1.083       .  S
C36          N37   1.356       .  A
C36          H46   1.082       .  S
N37          C38   1.352       .  A
N37         C146   1.429       .  S
C38          H44   1.082       .  S
C39          N40   1.356       .  A
C39          H41   1.081       .  S
N40          C42   1.352       .  A
N40         C157   1.431       .  S
C42          H43   1.081       .  S
C47          C49   1.538   1_554  S
C47          C51   1.538   1_554  S
C47          C50   1.530   1_554  S
C47         C213   1.539       .  S
C48          C52   1.552       .  S
C48          C54   1.538       .  S
C48          C53   1.550       .  S
C48         C200   1.535       .  S
C49          C57   1.374   1_556  A
C49          C52   1.396       .  A
C50          C61   1.372   1_556  A
C50          C53   1.397       .  A
C51          C65   1.374   1_556  A
C51          C54   1.397       .  A
C52          C55   1.389       .  A
C53          C59   1.389       .  A
C54          C62   1.383       .  A
C55          N56   1.358       .  A
C55          H68   1.082       .  S
N56          C57   1.352   1_556  A
N56         C134   1.430       .  S
C57          H58   1.082       .  S
C59          N60   1.356       .  A
C59          H69   1.081       .  S
N60          C61   1.352   1_556  A
N60          C98   1.428       .  S
C61          H67   1.082       .  S
C62          N63   1.355       .  A
C62          H64   1.082       .  S
N63          C65   1.351   1_556  A
N63         C109   1.424       .  S
C65          H66   1.081       .  S
C70          C72   1.554       .  S
C70          C74   1.546       .  S
C70          C73   1.542       .  S
C70         C220   1.534       .  S
C71          C75   1.542       .  S
C71          C77   1.530       .  S
C71          C76   1.533       .  S
C71         C193   1.538       .  S
C72          C80   1.389       .  A
C72          C75   1.402       .  A
C73          C84   1.386       .  A
C73          C76   1.393       .  A
C74          C88   1.386       .  A
C74          C77   1.393       .  A
C75          C78   1.376       .  A
C76          C82   1.371       .  A
C77          C85   1.373       .  A
C78          N79   1.350       .  A
C78          H91   1.082       .  S
N79          C80   1.355       .  A
N79         C150   1.427       .  S
C80          H81   1.082       .  S
C82          N83   1.351       .  A
C82          H92   1.082       .  S
N83          C84   1.358       .  A
N83         C158   1.427       .  S
C84          H90   1.082       .  S
C85          N86   1.354       .  A
C85          H87   1.082       .  S
N86          C88   1.356       .  A
N86         C184   1.428       .  S
C88          H89   1.082       .  S
O93         Mg95   2.134       .  S
O93        Mg369   2.168   1_554  S
O93         C396   1.235       .  S
C94         H133   1.081       .  S
C94         O107   1.235       .  S
C94         O131   1.269       .  A
Mg95        O660   2.167   1_454  S
Mg95        O139   2.301   1_554  S
Mg95        O671   2.254   1_455  S
Mg95        O642   2.297   1_455  S
O96        Mg121   2.147       .  S
O96        Mg674   2.169   1_454  S
O96         C653   1.234       .  S
O97         C128   1.268   1_545  A
O97        Mg121   2.290       .  S
C98         O100   1.274       .  A
C98         O112   1.274       .  A
O99         C127   1.269   1_455  A
O99        Mg369   2.295       .  S
O100       Mg132   2.278       .  S
Mg101       O107   2.141       .  S
Mg101       O361   2.168   1_546  S
Mg101       O103   2.305   1_556  S
Mg101       O367   2.295   1_545  S
Mg101       O383   2.275   1_545  S
C102        O140   1.272       .  A
C102        O108   1.274       .  A
O103        C110   1.275       .  A
H104        C653   1.081       .  S
C105        H398   1.081       .  S
C105        O387   1.234       .  S
C105        O120   1.267       .  A
O106        C129   1.270       .  A
O106       Mg631   2.297       .  S
O107       Mg121   2.164   1_556  S
O108       Mg138   2.296   1_554  S
C109        O122   1.270       .  A
C109        O114   1.276       .  A
C110        O137   1.274       .  A
Mg111       O118   2.144       .  S
Mg111       O387   2.171   1_554  S
Mg111       O112   2.300   1_554  S
Mg111       O381   2.289       .  S
Mg111       O408   2.272       .  S
O113        C117   1.268       .  A
O113       Mg379   2.289   1_545  S
O114       Mg121   2.301   1_556  S
O115        C134   1.272       .  A
O115       Mg369   2.275       .  S
O116        C136   1.275       .  A
O116       Mg132   2.297   1_554  S
C117        H640   1.081       .  S
C117        O632   1.234       .  S
O118       Mg132   2.165   1_554  S
O118        C129   1.236       .  S
O119       Mg138   2.131       .  S
O119       Mg379   2.171   1_546  S
O119        C373   1.234   1_545  S
O120       Mg132   2.287       .  S
Mg121       O137   2.280       .  S
O122       Mg674   2.251   1_455  S
H123        C396   1.081       .  S
O124       Mg132   2.153       .  S
O124       Mg631   2.167   1_556  S
O124        C663   1.235       .  S
H125        C663   1.081       .  S
H126        C129   1.081       .  S
C127        H661   1.081       .  S
C127        O660   1.235       .  S
C128        H391   1.081       .  S
C128        O361   1.235       .  S
H130        C373   1.081   1_545  S
O131       Mg674   2.294   1_455  S
C134        O139   1.275       .  A
O135        C136   1.270       .  A
O135       Mg631   2.254       .  S
Mg138       O632   2.169   1_556  S
Mg138       O658   2.251       .  S
Mg138       O667   2.294       .  S
O140       Mg379   2.272   1_545  S
O141       Mg143   2.139       .  S
O141       Mg685   2.163       .  S
O141        C712   1.235       .  S
C142        H181   1.081       .  S
C142        O155   1.235       .  S
C142        O179   1.268       .  A
Mg143       O440   2.171   1_545  S
Mg143       O187   2.282       .  S
Mg143       O451   2.263   1_545  S
Mg143       O422   2.290   1_545  S
O144       Mg169   2.145       .  S
O144       Mg454   2.165       .  S
O144        C433   1.235       .  S
O145        C176   1.268   1_455  A
O145       Mg169   2.290       .  S
C146        O148   1.271       .  A
C146        O160   1.277       .  A
O147        C175   1.269       .  A
O147       Mg685   2.291       .  S
O148       Mg180   2.264       .  S
Mg149       O155   2.129       .  S
Mg149       O677   2.163   1_455  S
Mg149       O151   2.289       .  S
Mg149       O683   2.291   1_455  S
Mg149       O699   2.250   1_455  S
C150        O188   1.273       .  A
C150        O156   1.277       .  A
O151        C158   1.273       .  A
H152        C433   1.081       .  S
C153        H714   1.081       .  S
C153        O703   1.235       .  S
C153        O168   1.269       .  A
O154        C177   1.268       .  A
O154       Mg411   2.290       .  S
O155       Mg169   2.163       .  S
O156       Mg186   2.312       .  S
C157        O170   1.276       .  A
C157        O162   1.274       .  A
C158        O185   1.273       .  A
Mg159       O166   2.143       .  S
Mg159       O703   2.165       .  S
Mg159       O160   2.316       .  S
Mg159       O697   2.296       .  S
Mg159       O724   2.266       .  S
O161        C165   1.269       .  A
O161       Mg695   2.296   1_455  S
O162       Mg169   2.301       .  S
O163        C182   1.269       .  A
O163       Mg685   2.250       .  S
O164        C184   1.274       .  A
O164       Mg180   2.302       .  S
C165        H420   1.081       .  S
C165        O412   1.235       .  S
O166       Mg180   2.172       .  S
O166        C177   1.234       .  S
O167       Mg186   2.163       .  S
O167       Mg695   2.165   1_455  S
O167        C689   1.235       .  S
O168       Mg180   2.298       .  S
Mg169       O185   2.276       .  S
O170       Mg454   2.293       .  S
H171        C712   1.081       .  S
O172       Mg180   2.135       .  S
O172       Mg411   2.171       .  S
O172        C443   1.236       .  S
H173        C443   1.080       .  S
H174        C177   1.081       .  S
C175        H441   1.080   1_545  S
C175        O440   1.236   1_545  S
C176        H707   1.081       .  S
C176        O677   1.235       .  S
H178        C689   1.081       .  S
O179       Mg454   2.286       .  S
C182        O187   1.271       .  A
O183        C184   1.270       .  A
O183       Mg411   2.263       .  S
Mg186       O412   2.165       .  S
Mg186       O438   2.293       .  S
Mg186       O447   2.286       .  S
O188       Mg695   2.266   1_455  S
C189        C190   1.401       .  A
C189        C194   1.399       .  A
C189        F207   1.358       .  S
C190        C191   1.402       .  A
C190        C195   1.481       .  S
C191        C192   1.399       .  A
C191        F196   1.358       .  S
C192        C193   1.416       .  A
C192        F208   1.357       .  S
C193        C194   1.415       .  A
C194        F197   1.355       .  S
C195        C198   1.401       .  A
C195        C202   1.402       .  A
C198        C199   1.399       .  A
C198        F203   1.358       .  S
C199        C200   1.416       .  A
C199        F205   1.357       .  S
C200        C201   1.414       .  A
C201        C202   1.399       .  A
C201        F204   1.354       .  S
C202        F206   1.358       .  S
C209        C210   1.401       .  A
C209        C214   1.398       .  A
C209        F227   1.358       .  S
C210        C211   1.400       .  A
C210        C215   1.479       .  S
C211        C212   1.399       .  A
C211        F216   1.358       .  S
C212        C213   1.417       .  A
C212        F228   1.357       .  S
C213        C214   1.415       .  A
C214        F217   1.354       .  S
C215        C218   1.401       .  A
C215        C222   1.401       .  A
C218        C219   1.397       .  A
C218        F223   1.358       .  S
C219        C220   1.415       .  A
C219        F225   1.356       .  S
C220        C221   1.416       .  A
C221        C222   1.400       .  A
C221        F224   1.355       .  S
C222        F226   1.358       .  S
C229        C230   1.402       .  A
C229        C234   1.397       .  A
C229        F247   1.358       .  S
C230        C231   1.403       .  A
C230        C235   1.482       .  S
C231        C232   1.400       .  A
C231        F236   1.358       .  S
C232        C233   1.415       .  A
C232        F248   1.355       .  S
C233        C234   1.415       .  A
C234        F237   1.356       .  S
C235        C238   1.403       .  A
C235        C242   1.402       .  A
C238        C239   1.399       .  A
C238        F243   1.358       .  S
C239        C240   1.414       .  A
C239        F245   1.355       .  S
C240        C241   1.415       .  A
C241        C242   1.399       .  A
C241        F244   1.356       .  S
C242        F246   1.358       .  S
C249        C250   1.404       .  A
C249        C254   1.399       .  A
C249        F267   1.358       .  S
C250        C251   1.403       .  A
C250        C255   1.485       .  S
C251        C252   1.399       .  A
C251        F256   1.358       .  S
C252        C253   1.418       .  A
C252        F268   1.356       .  S
C253        C254   1.412       .  A
C254        F257   1.355       .  S
C255        C258   1.402       .  A
C255        C262   1.404       .  A
C258        C259   1.398       .  A
C258        F263   1.358       .  S
C259        C260   1.414       .  A
C259        F265   1.356       .  S
C260        C261   1.416       .  A
C261        C262   1.401       .  A
C261        F264   1.357       .  S
C262        F266   1.358       .  S
C269        C271   1.552       .  S
C269        C273   1.538       .  S
C269        C272   1.552       .  S
C269        C521   1.535       .  S
C270        C274   1.540   1_556  S
C270        C276   1.536   1_556  S
C270        C275   1.528   1_556  S
C270        C501   1.537       .  S
C271        C279   1.388       .  A
C271        C274   1.396       .  A
C272        C283   1.391       .  A
C272        C275   1.397       .  A
C273        C287   1.382       .  A
C273        C276   1.396       .  A
C274        C277   1.376   1_554  A
C275        C281   1.370   1_554  A
C276        C284   1.374   1_554  A
C277        N278   1.352   1_556  A
C277        H290   1.082       .  S
N278        C279   1.356       .  A
N278        C370   1.429       .  S
C279        H280   1.082       .  S
C281        N282   1.351   1_556  A
C281        H291   1.083       .  S
N282        C283   1.359       .  A
N282        C378   1.429       .  S
C283        H289   1.081       .  S
C284        N285   1.352   1_556  A
C284        H286   1.082       .  S
N285        C287   1.355       .  A
N285        C404   1.424       .  S
C287        H288   1.082       .  S
C292        C294   1.521       .  S
C292        C296   1.543       .  S
C292        C295   1.540       .  S
C292        C528   1.537       .  S
C293        C297   1.532       .  S
C293        C299   1.555       .  S
C293        C298   1.553       .  S
C293        C508   1.534       .  S
C294        C302   1.367       .  A
C294        C297   1.388       .  A
C295        C306   1.375       .  A
C295        C298   1.400       .  A
C296        C310   1.378       .  A
C296        C299   1.401       .  A
C297        C300   1.382       .  A
C298        C304   1.390       .  A
C299        C307   1.390       .  A
C300        N301   1.357       .  A
C300        H313   1.082       .  S
N301        C302   1.351       .  A
N301        C450   1.421       .  S
C302        H303   1.083       .  S
C304        N305   1.356       .  A
C304        H314   1.082       .  S
N305        C306   1.352       .  A
N305        C414   1.429       .  S
C306        H312   1.082       .  S
C307        N308   1.356       .  A
C307        H309   1.081       .  S
N308        C310   1.352       .  A
N308        C425   1.431       .  S
C310        H311   1.081       .  S
C315        C317   1.538   1_554  S
C315        C319   1.538   1_554  S
C315        C318   1.530   1_554  S
C315        C481   1.539       .  S
C316        C320   1.552       .  S
C316        C322   1.538       .  S
C316        C321   1.550       .  S
C316        C468   1.535       .  S
C317        C325   1.374   1_556  A
C317        C320   1.396       .  A
C318        C329   1.372   1_556  A
C318        C321   1.397       .  A
C319        C333   1.374   1_556  A
C319        C322   1.397       .  A
C320        C323   1.389       .  A
C321        C327   1.389       .  A
C322        C330   1.383       .  A
C323        N324   1.358       .  A
C323        H336   1.082       .  S
N324        C325   1.352   1_556  A
N324        C402   1.430       .  S
C325        H326   1.082       .  S
C327        N328   1.356       .  A
C327        H337   1.081       .  S
N328        C329   1.352   1_556  A
N328        C366   1.428       .  S
C329        H335   1.082       .  S
C330        N331   1.355       .  A
C330        H332   1.082       .  S
N331        C333   1.351   1_556  A
N331        C377   1.424       .  S
C333        H334   1.081       .  S
C338        C340   1.554       .  S
C338        C342   1.546       .  S
C338        C341   1.542       .  S
C338        C488   1.534       .  S
C339        C343   1.542       .  S
C339        C345   1.530       .  S
C339        C344   1.533       .  S
C339        C461   1.538       .  S
C340        C348   1.389       .  A
C340        C343   1.402       .  A
C341        C352   1.386       .  A
C341        C344   1.393       .  A
C342        C356   1.386       .  A
C342        C345   1.393       .  A
C343        C346   1.376       .  A
C344        C350   1.371       .  A
C345        C353   1.373       .  A
C346        N347   1.350       .  A
C346        H359   1.082       .  S
N347        C348   1.355       .  A
N347        C418   1.427       .  S
C348        H349   1.082       .  S
C350        N351   1.351       .  A
C350        H360   1.082       .  S
N351        C352   1.358       .  A
N351        C426   1.427       .  S
C352        H358   1.082       .  S
C353        N354   1.354       .  A
C353        H355   1.082       .  S
N354        C356   1.356       .  A
N354        C452   1.428       .  S
C356        H357   1.082       .  S
O361       Mg363   2.134       .  S
C362        H401   1.081       .  S
C362        O375   1.235       .  S
C362        O399   1.269       .  A
Mg363       O928   2.167   1_454  S
Mg363       O407   2.301   1_554  S
Mg363       O939   2.254   1_455  S
Mg363       O910   2.297   1_455  S
O364       Mg942   2.169   1_454  S
O364       Mg389   2.147       .  S
O364        C921   1.234       .  S
O365        C396   1.268       .  A
O365       Mg389   2.290       .  S
C366        O368   1.274       .  A
C366        O380   1.274       .  A
O367        C395   1.269   1_455  A
O368       Mg400   2.278       .  S
Mg369       O375   2.141       .  S
Mg369       O371   2.305   1_556  S
C370        O408   1.272       .  A
C370        O376   1.274       .  A
O371        C378   1.275       .  A
H372        C921   1.081       .  S
C373        O388   1.267       .  A
O374        C397   1.270       .  A
O374       Mg899   2.297       .  S
O375       Mg389   2.164   1_556  S
O376       Mg406   2.296   1_554  S
C377        O390   1.270       .  A
C377        O382   1.276       .  A
C378        O405   1.274       .  A
Mg379       O386   2.144       .  S
Mg379       O380   2.300   1_554  S
O381        C385   1.268       .  A
O382       Mg389   2.301   1_556  S
O383        C402   1.272       .  A
O384        C404   1.275       .  A
O384       Mg400   2.297   1_554  S
C385        H908   1.081       .  S
C385        O900   1.234       .  S
O386       Mg400   2.165   1_554  S
O386        C397   1.236       .  S
O387       Mg406   2.131       .  S
O388       Mg400   2.287       .  S
Mg389       O405   2.280       .  S
O390       Mg942   2.251   1_455  S
O392       Mg899   2.167   1_556  S
O392       Mg400   2.153       .  S
O392        C931   1.235       .  S
H393        C931   1.081       .  S
H394        C397   1.081       .  S
C395        H929   1.081       .  S
C395        O928   1.235       .  S
O399       Mg942   2.294   1_455  S
C402        O407   1.275       .  A
O403        C404   1.270       .  A
O403       Mg899   2.254       .  S
Mg406       O900   2.169   1_556  S
Mg406       O926   2.251       .  S
Mg406       O935   2.294       .  S
O409       Mg411   2.139       .  S
O409       Mg953   2.163       .  S
O409        C980   1.235       .  S
C410        H449   1.081       .  S
C410        O423   1.235       .  S
C410        O447   1.268       .  A
Mg411       O455   2.282       .  S
O412       Mg437   2.145       .  S
O413        C444   1.268   1_455  A
O413       Mg437   2.290       .  S
C414        O416   1.271       .  A
C414        O428   1.277       .  A
O415        C443   1.269       .  A
O415       Mg953   2.291       .  S
O416       Mg448   2.264       .  S
Mg417       O945   2.163   1_455  S
Mg417       O423   2.129       .  S
Mg417       O951   2.291   1_455  S
Mg417       O967   2.250   1_455  S
Mg417       O419   2.289       .  S
C418        O456   1.273       .  A
C418        O424   1.277       .  A
O419        C426   1.273       .  A
C421        H982   1.081       .  S
C421        O971   1.235       .  S
C421        O436   1.269       .  A
O422        C445   1.268       .  A
O423       Mg437   2.163       .  S
O424       Mg454   2.312   1_565  S
C425        O438   1.276       .  A
C425        O430   1.274       .  A
C426        O453   1.273       .  A
Mg427       O434   2.143       .  S
Mg427       O971   2.165       .  S
Mg427       O428   2.316       .  S
Mg427       O965   2.296       .  S
Mg427       O992   2.266       .  S
O429        C433   1.269   1_565  A
O429       Mg963   2.296   1_455  S
O430       Mg437   2.301       .  S
O431        C450   1.269       .  A
O431       Mg953   2.250       .  S
O432        C452   1.274       .  A
O432       Mg448   2.302       .  S
O434       Mg448   2.172       .  S
O434        C445   1.234       .  S
O435       Mg963   2.165   1_455  S
O435       Mg454   2.163   1_565  S
O435        C957   1.235       .  S
O436       Mg448   2.298       .  S
Mg437       O453   2.276       .  S
H439        C980   1.081       .  S
O440       Mg448   2.135       .  S
H442        C445   1.081       .  S
C444        H975   1.081       .  S
C444        O945   1.235       .  S
H446        C957   1.081       .  S
C450        O455   1.271       .  A
O451        C452   1.270       .  A
O456       Mg963   2.266   1_455  S
C457        C458   1.401       .  A
C457        C462   1.399       .  A
C457        F475   1.358       .  S
C458        C459   1.402       .  A
C458        C463   1.481       .  S
C459        C460   1.399       .  A
C459        F464   1.358       .  S
C460        C461   1.416       .  A
C460        F476   1.357       .  S
C461        C462   1.415       .  A
C462        F465   1.355       .  S
C463        C466   1.401       .  A
C463        C470   1.402       .  A
C466        C467   1.399       .  A
C466        F471   1.358       .  S
C467        C468   1.416       .  A
C467        F473   1.357       .  S
C468        C469   1.414       .  A
C469        C470   1.399       .  A
C469        F472   1.354       .  S
C470        F474   1.358       .  S
C477        C478   1.401       .  A
C477        C482   1.398       .  A
C477        F495   1.358       .  S
C478        C479   1.400       .  A
C478        C483   1.479       .  S
C479        C480   1.399       .  A
C479        F484   1.358       .  S
C480        C481   1.417       .  A
C480        F496   1.357       .  S
C481        C482   1.415       .  A
C482        F485   1.354       .  S
C483        C486   1.401       .  A
C483        C490   1.401       .  A
C486        C487   1.397       .  A
C486        F491   1.358       .  S
C487        C488   1.415       .  A
C487        F493   1.356       .  S
C488        C489   1.416       .  A
C489        C490   1.400       .  A
C489        F492   1.355       .  S
C490        F494   1.358       .  S
C497        C498   1.402       .  A
C497        C502   1.397       .  A
C497        F515   1.358       .  S
C498        C499   1.403       .  A
C498        C503   1.482       .  S
C499        C500   1.400       .  A
C499        F504   1.358       .  S
C500        C501   1.415       .  A
C500        F516   1.355       .  S
C501        C502   1.415       .  A
C502        F505   1.356       .  S
C503        C506   1.403       .  A
C503        C510   1.402       .  A
C506        C507   1.399       .  A
C506        F511   1.358       .  S
C507        C508   1.414       .  A
C507        F513   1.355       .  S
C508        C509   1.415       .  A
C509        C510   1.399       .  A
C509        F512   1.356       .  S
C510        F514   1.358       .  S
C517        C518   1.404       .  A
C517        C522   1.399       .  A
C517        F535   1.358       .  S
C518        C519   1.403       .  A
C518        C523   1.485       .  S
C519        C520   1.399       .  A
C519        F524   1.358       .  S
C520        C521   1.418       .  A
C520        F536   1.356       .  S
C521        C522   1.412       .  A
C522        F525   1.355       .  S
C523        C526   1.402       .  A
C523        C530   1.404       .  A
C526        C527   1.398       .  A
C526        F531   1.358       .  S
C527        C528   1.414       .  A
C527        F533   1.356       .  S
C528        C529   1.416       .  A
C529        C530   1.401       .  A
C529        F532   1.357       .  S
C530        F534   1.358       .  S
C537        C539   1.552       .  S
C537        C541   1.538       .  S
C537        C540   1.552       .  S
C537        C789   1.535       .  S
C538        C542   1.540   1_556  S
C538        C544   1.536   1_556  S
C538        C543   1.528   1_556  S
C538        C769   1.537       .  S
C539        C547   1.388       .  A
C539        C542   1.396       .  A
C540        C551   1.391       .  A
C540        C543   1.397       .  A
C541        C555   1.382       .  A
C541        C544   1.396       .  A
C542        C545   1.376   1_554  A
C543        C549   1.370   1_554  A
C544        C552   1.374   1_554  A
C545        N546   1.352   1_556  A
C545        H558   1.082       .  S
N546        C547   1.356       .  A
N546        C638   1.429       .  S
C547        H548   1.082       .  S
C549        N550   1.351   1_556  A
C549        H559   1.083       .  S
N550        C551   1.359       .  A
N550        C646   1.429       .  S
C551        H557   1.081       .  S
C552        N553   1.352   1_556  A
C552        H554   1.082       .  S
N553        C555   1.355       .  A
N553        C672   1.424       .  S
C555        H556   1.082       .  S
C560        C562   1.521       .  S
C560        C564   1.543       .  S
C560        C563   1.540       .  S
C560        C796   1.537       .  S
C561        C565   1.532       .  S
C561        C567   1.555       .  S
C561        C566   1.553       .  S
C561        C776   1.534       .  S
C562        C570   1.367       .  A
C562        C565   1.388       .  A
C563        C574   1.375       .  A
C563        C566   1.400       .  A
C564        C578   1.378       .  A
C564        C567   1.401       .  A
C565        C568   1.382       .  A
C566        C572   1.390       .  A
C567        C575   1.390       .  A
C568        N569   1.357       .  A
C568        H581   1.082       .  S
N569        C570   1.351       .  A
N569        C718   1.421       .  S
C570        H571   1.083       .  S
C572        N573   1.356       .  A
C572        H582   1.082       .  S
N573        C574   1.352       .  A
N573        C682   1.429       .  S
C574        H580   1.082       .  S
C575        N576   1.356       .  A
C575        H577   1.081       .  S
N576        C578   1.352       .  A
N576        C693   1.431       .  S
C578        H579   1.081       .  S
C583        C585   1.538   1_554  S
C583        C587   1.538   1_554  S
C583        C586   1.530   1_554  S
C583        C749   1.539       .  S
C584        C588   1.552       .  S
C584        C590   1.538       .  S
C584        C589   1.550       .  S
C584        C736   1.535       .  S
C585        C593   1.374   1_556  A
C585        C588   1.396       .  A
C586        C597   1.372   1_556  A
C586        C589   1.397       .  A
C587        C601   1.374   1_556  A
C587        C590   1.397       .  A
C588        C591   1.389       .  A
C589        C595   1.389       .  A
C590        C598   1.383       .  A
C591        N592   1.358       .  A
C591        H604   1.082       .  S
N592        C593   1.352   1_556  A
N592        C670   1.430       .  S
C593        H594   1.082       .  S
C595        N596   1.356       .  A
C595        H605   1.081       .  S
N596        C597   1.352   1_556  A
N596        C634   1.428       .  S
C597        H603   1.082       .  S
C598        N599   1.355       .  A
C598        H600   1.082       .  S
N599        C601   1.351   1_556  A
N599        C645   1.424       .  S
C601        H602   1.081       .  S
C606        C608   1.554       .  S
C606        C610   1.546       .  S
C606        C609   1.542       .  S
C606        C756   1.534       .  S
C607        C611   1.542       .  S
C607        C613   1.530       .  S
C607        C612   1.533       .  S
C607        C729   1.538       .  S
C608        C616   1.389       .  A
C608        C611   1.402       .  A
C609        C620   1.386       .  A
C609        C612   1.393       .  A
C610        C624   1.386       .  A
C610        C613   1.393       .  A
C611        C614   1.376       .  A
C612        C618   1.371       .  A
C613        C621   1.373       .  A
C614        N615   1.350       .  A
C614        H627   1.082       .  S
N615        C616   1.355       .  A
N615        C686   1.427       .  S
C616        H617   1.082       .  S
C618        N619   1.351       .  A
C618        H628   1.082       .  S
N619        C620   1.358       .  A
N619        C694   1.427       .  S
C620        H626   1.082       .  S
C621        N622   1.354       .  A
C621        H623   1.082       .  S
N622        C624   1.356       .  A
N622        C720   1.428       .  S
C624        H625   1.082       .  S
O629       Mg631   2.134       .  S
O629       Mg905   2.168   1_554  S
O629        C932   1.235       .  S
C630        H669   1.081       .  S
C630        O643   1.235       .  S
C630        O667   1.269       .  A
Mg631       O675   2.301   1_554  S
O632       Mg657   2.147       .  S
O633        C664   1.268   1_545  A
O633       Mg657   2.290       .  S
C634        O636   1.274       .  A
C634        O648   1.274       .  A
O635        C663   1.269       .  A
O635       Mg905   2.295       .  S
O636       Mg668   2.278       .  S
Mg637       O897   2.168   1_546  S
Mg637       O643   2.141       .  S
Mg637       O903   2.295   1_545  S
Mg637       O919   2.275   1_545  S
Mg637       O639   2.305   1_556  S
C638        O676   1.272       .  A
C638        O644   1.274       .  A
O639        C646   1.275       .  A
C641        H934   1.081       .  S
C641        O923   1.234       .  S
C641        O656   1.267       .  A
O642        C665   1.270       .  A
O643       Mg657   2.164   1_556  S
O644       Mg674   2.296   1_554  S
C645        O658   1.270       .  A
C645        O650   1.276       .  A
C646        O673   1.274       .  A
Mg647       O654   2.144       .  S
Mg647       O923   2.171   1_554  S
Mg647       O648   2.300   1_554  S
Mg647       O917   2.289       .  S
Mg647       O944   2.272       .  S
O649        C653   1.268   1_655  A
O649       Mg915   2.289   1_545  S
O650       Mg657   2.301   1_556  S
O651        C670   1.272       .  A
O651       Mg905   2.275       .  S
O652        C672   1.275       .  A
O652       Mg668   2.297   1_554  S
O654       Mg668   2.165   1_554  S
O654        C665   1.236       .  S
O655       Mg915   2.171   1_546  S
O655       Mg674   2.131       .  S
O655        C909   1.234   1_545  S
O656       Mg668   2.287       .  S
Mg657       O673   2.280       .  S
H659        C932   1.081       .  S
O660       Mg668   2.153       .  S
H662        C665   1.081       .  S
C664        H927   1.081       .  S
C664        O897   1.235       .  S
H666        C909   1.081   1_545  S
C670        O675   1.275       .  A
O671        C672   1.270       .  A
O676       Mg915   2.272   1_545  S
O677       Mg679   2.139       .  S
C678        H717   1.081       .  S
C678        O691   1.235       .  S
C678        O715   1.268       .  A
Mg679       O976   2.171   1_545  S
Mg679       O723   2.282       .  S
Mg679       O987   2.263   1_545  S
Mg679       O958   2.290   1_545  S
O680       Mg990   2.165       .  S
O680       Mg705   2.145       .  S
O680        C969   1.235       .  S
O681        C712   1.268       .  A
O681       Mg705   2.290       .  S
C682        O684   1.271       .  A
C682        O696   1.277       .  A
O683        C711   1.269       .  A
O684       Mg716   2.264       .  S
Mg685       O691   2.129       .  S
Mg685       O687   2.289       .  S
C686        O724   1.273       .  A
C686        O692   1.277       .  A
O687        C694   1.273       .  A
H688        C969   1.081       .  S
C689        O704   1.269   1_455  A
O690        C713   1.268       .  A
O690       Mg947   2.290       .  S
O691       Mg705   2.163       .  S
O692       Mg722   2.312       .  S
C693        O706   1.276       .  A
C693        O698   1.274       .  A
C694        O721   1.273       .  A
Mg695       O702   2.143       .  S
Mg695       O696   2.316       .  S
O697        C701   1.269       .  A
O698       Mg705   2.301       .  S
O699        C718   1.269       .  A
O700        C720   1.274       .  A
O700       Mg716   2.302       .  S
C701        H956   1.081       .  S
C701        O948   1.235       .  S
O702       Mg716   2.172       .  S
O702        C713   1.234       .  S
O703       Mg722   2.163       .  S
O704       Mg716   2.298       .  S
Mg705       O721   2.276       .  S
O706       Mg990   2.293       .  S
O708       Mg947   2.171       .  S
O708       Mg716   2.135       .  S
O708        C979   1.236       .  S
H709        C979   1.080       .  S
H710        C713   1.081       .  S
C711        H977   1.080   1_545  S
C711        O976   1.236   1_545  S
O715       Mg990   2.286       .  S
C718        O723   1.271       .  A
O719        C720   1.270       .  A
O719       Mg947   2.263       .  S
Mg722       O948   2.165       .  S
Mg722       O974   2.293       .  S
Mg722       O983   2.286       .  S
C725        C726   1.401       .  A
C725        C730   1.399       .  A
C725        F743   1.358       .  S
C726        C727   1.402       .  A
C726        C731   1.481       .  S
C727        C728   1.399       .  A
C727        F732   1.358       .  S
C728        C729   1.416       .  A
C728        F744   1.357       .  S
C729        C730   1.415       .  A
C730        F733   1.355       .  S
C731        C734   1.401       .  A
C731        C738   1.402       .  A
C734        C735   1.399       .  A
C734        F739   1.358       .  S
C735        C736   1.416       .  A
C735        F741   1.357       .  S
C736        C737   1.414       .  A
C737        C738   1.399       .  A
C737        F740   1.354       .  S
C738        F742   1.358       .  S
C745        C746   1.401       .  A
C745        C750   1.398       .  A
C745        F763   1.358       .  S
C746        C747   1.400       .  A
C746        C751   1.479       .  S
C747        C748   1.399       .  A
C747        F752   1.358       .  S
C748        C749   1.417       .  A
C748        F764   1.357       .  S
C749        C750   1.415       .  A
C750        F753   1.354       .  S
C751        C754   1.401       .  A
C751        C758   1.401       .  A
C754        C755   1.397       .  A
C754        F759   1.358       .  S
C755        C756   1.415       .  A
C755        F761   1.356       .  S
C756        C757   1.416       .  A
C757        C758   1.400       .  A
C757        F760   1.355       .  S
C758        F762   1.358       .  S
C765        C766   1.402       .  A
C765        C770   1.397       .  A
C765        F783   1.358       .  S
C766        C767   1.403       .  A
C766        C771   1.482       .  S
C767        C768   1.400       .  A
C767        F772   1.358       .  S
C768        C769   1.415       .  A
C768        F784   1.355       .  S
C769        C770   1.415       .  A
C770        F773   1.356       .  S
C771        C774   1.403       .  A
C771        C778   1.402       .  A
C774        C775   1.399       .  A
C774        F779   1.358       .  S
C775        C776   1.414       .  A
C775        F781   1.355       .  S
C776        C777   1.415       .  A
C777        C778   1.399       .  A
C777        F780   1.356       .  S
C778        F782   1.358       .  S
C785        C786   1.404       .  A
C785        C790   1.399       .  A
C785        F803   1.358       .  S
C786        C787   1.403       .  A
C786        C791   1.485       .  S
C787        C788   1.399       .  A
C787        F792   1.358       .  S
C788        C789   1.418       .  A
C788        F804   1.356       .  S
C789        C790   1.412       .  A
C790        F793   1.355       .  S
C791        C794   1.402       .  A
C791        C798   1.404       .  A
C794        C795   1.398       .  A
C794        F799   1.358       .  S
C795        C796   1.414       .  A
C795        F801   1.356       .  S
C796        C797   1.416       .  A
C797        C798   1.401       .  A
C797        F800   1.357       .  S
C798        F802   1.358       .  S
C805        C807   1.552       .  S
C805        C809   1.538       .  S
C805        C808   1.552       .  S
C805       C1057   1.535       .  S
C806        C810   1.540   1_556  S
C806        C812   1.536   1_556  S
C806        C811   1.528   1_556  S
C806       C1037   1.537       .  S
C807        C815   1.388       .  A
C807        C810   1.396       .  A
C808        C819   1.391       .  A
C808        C811   1.397       .  A
C809        C823   1.382       .  A
C809        C812   1.396       .  A
C810        C813   1.376   1_554  A
C811        C817   1.370   1_554  A
C812        C820   1.374   1_554  A
C813        N814   1.352   1_556  A
C813        H826   1.082       .  S
N814        C815   1.356       .  A
N814        C906   1.429       .  S
C815        H816   1.082       .  S
C817        N818   1.351   1_556  A
C817        H827   1.083       .  S
N818        C819   1.359       .  A
N818        C914   1.429       .  S
C819        H825   1.081       .  S
C820        N821   1.352   1_556  A
C820        H822   1.082       .  S
N821        C823   1.355       .  A
N821        C940   1.424       .  S
C823        H824   1.082       .  S
C828        C830   1.521       .  S
C828        C832   1.543       .  S
C828        C831   1.540       .  S
C828       C1064   1.537       .  S
C829        C833   1.532       .  S
C829        C835   1.555       .  S
C829        C834   1.553       .  S
C829       C1044   1.534       .  S
C830        C838   1.367       .  A
C830        C833   1.388       .  A
C831        C842   1.375       .  A
C831        C834   1.400       .  A
C832        C846   1.378       .  A
C832        C835   1.401       .  A
C833        C836   1.382       .  A
C834        C840   1.390       .  A
C835        C843   1.390       .  A
C836        N837   1.357       .  A
C836        H849   1.082       .  S
N837        C838   1.351       .  A
N837        C986   1.421       .  S
C838        H839   1.083       .  S
C840        N841   1.356       .  A
C840        H850   1.082       .  S
N841        C842   1.352       .  A
N841        C950   1.429       .  S
C842        H848   1.082       .  S
C843        N844   1.356       .  A
C843        H845   1.081       .  S
N844        C846   1.352       .  A
N844        C961   1.431       .  S
C846        H847   1.081       .  S
C851        C853   1.538   1_554  S
C851        C855   1.538   1_554  S
C851        C854   1.530   1_554  S
C851       C1017   1.539       .  S
C852        C856   1.552       .  S
C852        C858   1.538       .  S
C852        C857   1.550       .  S
C852       C1004   1.535       .  S
C853        C861   1.374   1_556  A
C853        C856   1.396       .  A
C854        C865   1.372   1_556  A
C854        C857   1.397       .  A
C855        C869   1.374   1_556  A
C855        C858   1.397       .  A
C856        C859   1.389       .  A
C857        C863   1.389       .  A
C858        C866   1.383       .  A
C859        N860   1.358       .  A
C859        H872   1.082       .  S
N860        C861   1.352   1_556  A
N860        C938   1.430       .  S
C861        H862   1.082       .  S
C863        N864   1.356       .  A
C863        H873   1.081       .  S
N864        C865   1.352   1_556  A
N864        C902   1.428       .  S
C865        H871   1.082       .  S
C866        N867   1.355       .  A
C866        H868   1.082       .  S
N867        C869   1.351   1_556  A
N867        C913   1.424       .  S
C869        H870   1.081       .  S
C874        C876   1.554       .  S
C874        C878   1.546       .  S
C874        C877   1.542       .  S
C874       C1024   1.534       .  S
C875        C879   1.542       .  S
C875        C881   1.530       .  S
C875        C880   1.533       .  S
C875        C997   1.538       .  S
C876        C884   1.389       .  A
C876        C879   1.402       .  A
C877        C888   1.386       .  A
C877        C880   1.393       .  A
C878        C892   1.386       .  A
C878        C881   1.393       .  A
C879        C882   1.376       .  A
C880        C886   1.371       .  A
C881        C889   1.373       .  A
C882        N883   1.350       .  A
C882        H895   1.082       .  S
N883        C884   1.355       .  A
N883        C954   1.427       .  S
C884        H885   1.082       .  S
C886        N887   1.351       .  A
C886        H896   1.082       .  S
N887        C888   1.358       .  A
N887        C962   1.427       .  S
C888        H894   1.082       .  S
C889        N890   1.354       .  A
C889        H891   1.082       .  S
N890        C892   1.356       .  A
N890        C988   1.428       .  S
C892        H893   1.082       .  S
O897       Mg899   2.134       .  S
C898        H937   1.081       .  S
C898        O911   1.235       .  S
C898        O935   1.269       .  A
Mg899       O943   2.301   1_554  S
O900       Mg925   2.147       .  S
O901        C932   1.268       .  A
O901       Mg925   2.290       .  S
C902        O904   1.274       .  A
C902        O916   1.274       .  A
O903        C931   1.269       .  A
O904       Mg936   2.278       .  S
Mg905       O911   2.141       .  S
Mg905       O907   2.305   1_556  S
C906        O944   1.272       .  A
C906        O912   1.274       .  A
O907        C914   1.275       .  A
C909        O924   1.267       .  A
O910        C933   1.270       .  A
O911       Mg925   2.164   1_556  S
O912       Mg942   2.296   1_554  S
C913        O926   1.270       .  A
C913        O918   1.276       .  A
C914        O941   1.274       .  A
Mg915       O922   2.144       .  S
Mg915       O916   2.300   1_554  S
O917        C921   1.268   1_655  A
O918       Mg925   2.301   1_556  S
O919        C938   1.272       .  A
O920        C940   1.275       .  A
O920       Mg936   2.297   1_554  S
O922       Mg936   2.165   1_554  S
O922        C933   1.236       .  S
O923       Mg942   2.131       .  S
O924       Mg936   2.287       .  S
Mg925       O941   2.280       .  S
O928       Mg936   2.153       .  S
H930        C933   1.081       .  S
C938        O943   1.275       .  A
O939        C940   1.270       .  A
O945       Mg947   2.139       .  S
C946        H985   1.081       .  S
C946        O959   1.235       .  S
C946        O983   1.268       .  A
Mg947       O991   2.281       .  S
O948       Mg973   2.145       .  S
O949        C980   1.268       .  A
O949       Mg973   2.290       .  S
C950        O952   1.271       .  A
C950        O964   1.277       .  A
O951        C979   1.269       .  A
O952       Mg984   2.264       .  S
Mg953       O959   2.129       .  S
Mg953       O955   2.289       .  S
C954        O992   1.273       .  A
C954        O960   1.277       .  A
O955        C962   1.273       .  A
C957        O972   1.269   1_455  A
O958        C981   1.268       .  A
O959       Mg973   2.163       .  S
O960       Mg990   2.312   1_565  S
C961        O974   1.276       .  A
C961        O966   1.274       .  A
C962        O989   1.273       .  A
Mg963       O970   2.143       .  S
Mg963       O964   2.316       .  S
O965        C969   1.269   1_565  A
O966       Mg973   2.301       .  S
O967        C986   1.269       .  A
O968        C988   1.274       .  A
O968       Mg984   2.302       .  S
O970       Mg984   2.172       .  S
O970        C981   1.234       .  S
O971       Mg990   2.163   1_565  S
O972       Mg984   2.298       .  S
Mg973       O989   2.276       .  S
O976       Mg984   2.135       .  S
H978        C981   1.081       .  S
C986        O991   1.271       .  A
O987        C988   1.270       .  A
C993        C994   1.401       .  A
C993        C998   1.399       .  A
C993       F1011   1.358       .  S
C994        C995   1.402       .  A
C994        C999   1.481       .  S
C995        C996   1.399       .  A
C995       F1000   1.358       .  S
C996        C997   1.416       .  A
C996       F1012   1.357       .  S
C997        C998   1.415       .  A
C998       F1001   1.355       .  S
C999       C1002   1.401       .  A
C999       C1006   1.402       .  A
C1002      C1003   1.399       .  A
C1002      F1007   1.358       .  S
C1003      C1004   1.416       .  A
C1003      F1009   1.357       .  S
C1004      C1005   1.414       .  A
C1005      C1006   1.399       .  A
C1005      F1008   1.354       .  S
C1006      F1010   1.358       .  S
C1013      C1014   1.401       .  A
C1013      C1018   1.398       .  A
C1013      F1031   1.358       .  S
C1014      C1015   1.400       .  A
C1014      C1019   1.479       .  S
C1015      C1016   1.399       .  A
C1015      F1020   1.358       .  S
C1016      C1017   1.417       .  A
C1016      F1032   1.357       .  S
C1017      C1018   1.415       .  A
C1018      F1021   1.354       .  S
C1019      C1022   1.401       .  A
C1019      C1026   1.401       .  A
C1022      C1023   1.397       .  A
C1022      F1027   1.358       .  S
C1023      C1024   1.415       .  A
C1023      F1029   1.356       .  S
C1024      C1025   1.416       .  A
C1025      C1026   1.400       .  A
C1025      F1028   1.355       .  S
C1026      F1030   1.358       .  S
C1033      C1034   1.402       .  A
C1033      C1038   1.397       .  A
C1033      F1051   1.358       .  S
C1034      C1035   1.403       .  A
C1034      C1039   1.482       .  S
C1035      C1036   1.400       .  A
C1035      F1040   1.358       .  S
C1036      C1037   1.415       .  A
C1036      F1052   1.355       .  S
C1037      C1038   1.415       .  A
C1038      F1041   1.356       .  S
C1039      C1042   1.403       .  A
C1039      C1046   1.402       .  A
C1042      C1043   1.399       .  A
C1042      F1047   1.358       .  S
C1043      C1044   1.414       .  A
C1043      F1049   1.355       .  S
C1044      C1045   1.415       .  A
C1045      C1046   1.399       .  A
C1045      F1048   1.356       .  S
C1046      F1050   1.358       .  S
C1053      C1054   1.404       .  A
C1053      C1058   1.399       .  A
C1053      F1071   1.358       .  S
C1054      C1055   1.403       .  A
C1054      C1059   1.485       .  S
C1055      C1056   1.399       .  A
C1055      F1060   1.358       .  S
C1056      C1057   1.418       .  A
C1056      F1072   1.356       .  S
C1057      C1058   1.412       .  A
C1058      F1061   1.355       .  S
C1059      C1062   1.402       .  A
C1059      C1066   1.404       .  A
C1062      C1063   1.398       .  A
C1062      F1067   1.358       .  S
C1063      C1064   1.414       .  A
C1063      F1069   1.356       .  S
C1064      C1065   1.416       .  A
C1065      C1066   1.401       .  A
C1065      F1068   1.357       .  S
C1066      F1070   1.358       .  S
