geometry optimzed in LAMMPS
_audit_creation_date              2020-12-01 
_audit_creation_method            'lammps2cif' 
_symmetry_space_group_name_H-M    'P1' 
_symmetry_Int_Tables_number       1 
_symmetry_cell_setting            triclinic 
loop_ 
_symmetry_equiv_pos_as_xyz 
  x,y,z 
_cell_length_a                    55.59402284 
_cell_length_b                    54.95179355440421 
_cell_length_c                    50.113666670499 
_cell_angle_alpha                 89.78763906176435 
_cell_angle_beta                  88.49675455576428 
_cell_angle_gamma                 124.46934263797597 
loop_ 
_atom_site_label 
_atom_site_type_symbol 
_atom_site_fract_x 
_atom_site_fract_y 
_atom_site_fract_z 
_atom_site_charge 
N1          N  0.41020760  0.95936163  0.12160787    -0.27400
N2          N  0.41063828  0.93967770  0.13633706    -0.35200
C3          C  0.39211797  0.93145042  0.15735014     0.01000
C4          C  0.37921336  0.94670948  0.15617728     0.07000
C5          C  0.39116970  0.96437939  0.13316696    -0.06100
H6          H  0.38939031  0.91643249  0.17304102     0.07600
H7          H  0.38663857  0.97981244  0.12561818     0.08800
Cu8        Cu  0.44000452  0.92865340  0.13055340     0.44200
Cu9        Cu  0.43646183  0.97605036  0.08686977     0.42000
Cu10       Cu  0.49985737  0.96829167  0.08559019     0.43900
N11         N  0.47781990  0.93084227  0.13466173    -0.34800
N12         N  0.50163154  0.94746630  0.11946210    -0.29000
C13         C  0.52348614  0.94690238  0.12993439    -0.05100
C14         C  0.51243391  0.92888103  0.15275384     0.07100
C15         C  0.48349411  0.91916720  0.15495163     0.00900
H16         H  0.54562605  0.95883599  0.12177340     0.08500
H17         H  0.46787736  0.90566781  0.17085723     0.07600
N18         N  0.48086931  0.97286249  0.05235753    -0.36200
N19         N  0.45861317  0.97556768  0.05279270    -0.28400
C20         C  0.44835761  0.97145460  0.02802217    -0.03600
C21         C  0.46455615  0.96554593  0.01130675     0.05000
C22         C  0.48514332  0.96694180  0.02732400     0.03100
H23         H  0.42873577  0.96998586  0.02316088     0.08200
H24         H  0.50028879  0.96124196  0.02181094     0.07000
N25         N  0.46449716  0.88919648  0.38309290    -0.27400
N26         N  0.44273964  0.87475454  0.36660719    -0.35200
C27         C  0.45169181  0.86701399  0.34514795     0.01000
C28         C  0.48052805  0.87703899  0.34815592     0.07000
C29         C  0.48795155  0.89087299  0.37253427    -0.06100
H30         H  0.43877710  0.85681686  0.32775412     0.07600
H31         H  0.50935332  0.90317026  0.38098677     0.08800
Cu32       Cu  0.40432102  0.87213875  0.37037996     0.44200
Cu33       Cu  0.46226343  0.91011663  0.41661714     0.42000
Cu34       Cu  0.40247649  0.91995322  0.41772850     0.43900
N35         N  0.37501597  0.88373475  0.36916023    -0.34800
N36         N  0.37480192  0.90212724  0.38590948    -0.29000
C37         C  0.35728651  0.90962915  0.37661215    -0.05100
C38         C  0.34624391  0.89541641  0.35276497     0.07100
C39         C  0.35779603  0.87906766  0.34878873     0.00900
H40         H  0.35479608  0.92608139  0.38536462     0.08500
H41         H  0.35598238  0.86680641  0.33123401     0.07600
N42         N  0.43331458  0.93502438  0.44697923    -0.36200
N43         N  0.45487571  0.93134818  0.44672640    -0.28400
C44         C  0.46996561  0.94260597  0.46910870    -0.03600
C45         C  0.45728422  0.95386975  0.98413555     0.05000
C46         C  0.43414007  0.94869463  0.46948510     0.03100
H47         H  0.48824679  0.94179910  0.97439936     0.08200
H48         H  0.41845200  0.95364131  0.97511658     0.07000
N49         N  0.50965182  0.53691634  0.16202243    -0.27400
N50         N  0.49762444  0.54666889  0.17791505    -0.35200
C51         C  0.51377163  0.55844633  0.19957993     0.01000
C52         C  0.53679964  0.55554114  0.19755084     0.07000
C53         C  0.53351604  0.54160652  0.17362204    -0.06100
H54         H  0.50775592  0.56617071  0.21663496     0.07600
H55         H  0.54698412  0.53473478  0.16559401     0.08800
Cu56       Cu  0.45573859  0.53569597  0.17411388     0.44200
Cu57       Cu  0.49158429  0.51654826  0.12601378     0.42000
Cu58       Cu  0.41482668  0.48783638  0.12104863     0.43900
N59         N  0.41099263  0.50569914  0.17663618    -0.34800
N60         N  0.39592175  0.48749036  0.15728551    -0.29000
C61         C  0.36962200  0.46548130  0.16726390    -0.05100
C62         C  0.36825880  0.46975785  0.19432465     0.07100
C63         C  0.39475343  0.49568968  0.19947372     0.00900
H64         H  0.35426664  0.44593061  0.15639712     0.08500
H65         H  0.40310381  0.50444640  0.21891127     0.07600
N66         N  0.44014907  0.48850852  0.08965969    -0.36200
N67         N  0.46808189  0.49883921  0.09137722    -0.28400
C68         C  0.47790051  0.49581552  0.06763107    -0.03600
C69         C  0.45500669  0.48282147  0.05027735     0.05000
C70         C  0.43142621  0.47848389  0.06492242     0.03100
H71         H  0.50000420  0.50234003  0.06341989     0.08200
H72         H  0.40947330  0.46859452  0.05820479     0.07000
N73         N  0.40056557  0.40658227  0.41522239    -0.27400
N74         N  0.41382185  0.39710764  0.40072554    -0.35200
C75         C  0.39769129  0.38273852  0.37956944    -0.03800
C76         C  0.37332246  0.38352713  0.38048366     0.07000
C77         C  0.37592395  0.39904348  0.40317854    -0.06100
H78         H  0.40481400  0.37523930  0.36318594     0.07600
H79         H  0.36181174  0.40574310  0.40964300     0.08800
Cu80       Cu  0.45705861  0.41217122  0.40453808     0.44200
Cu81       Cu  0.41823569  0.43180144  0.44927727     0.42000
Cu82       Cu  0.49598076  0.46617991  0.45387657     0.43900
N83         N  0.50164651  0.44344845  0.40155579    -0.34800
N84         N  0.51600294  0.46377140  0.41965758    -0.29000
C85         C  0.54256322  0.48493619  0.40945458    -0.05100
C86         C  0.54487931  0.47783076  0.38348211     0.07100
C87         C  0.51860508  0.45124940  0.37923648     0.00900
H88         H  0.55759649  0.50556878  0.41910059     0.08500
H89         H  0.51110433  0.44016555  0.36043209     0.07600
N90         N  0.47042756  0.46718574  0.48393400    -0.36200
N91         N  0.44208760  0.45502815  0.48242265    -0.28400
C92         C  0.43220600  0.45914087  0.00564649    -0.03600
C93         C  0.45549080  0.47454023  0.02244642     0.05000
C94         C  0.47932726  0.47930650  0.00797790     0.03100
H95         H  0.40965786  0.45092533  0.01017131     0.08200
H96         H  0.50147850  0.49034070  0.01455037     0.07000
N97         N  0.98589416  0.42240686  0.38524377    -0.27400
N98         N  0.00487525  0.43976412  0.36607339    -0.35200
C99         C  0.00253437  0.42320433  0.34531104     0.01000
C100        C  0.98113249  0.39400285  0.35170113     0.07000
C101        C  0.97071789  0.39431273  0.37700122    -0.06100
H102        H  0.01368782  0.43201488  0.32610364     0.07600
H103        H  0.95234709  0.37576548  0.38793821     0.08800
Cu104      Cu  0.02799127  0.48535015  0.36644425     0.44200
Cu105      Cu  0.97996447  0.43860906  0.42046404     0.42000
Cu106      Cu  0.01561669  0.51835018  0.42262814     0.43900
N107        N  0.03882924  0.52812158  0.36593960    -0.34800
N108        N  0.03367891  0.54013560  0.38614933    -0.29000
C109        C  0.03799384  0.56564808  0.37764731    -0.05100
C110        C  0.04608348  0.56971861  0.35076591     0.07100
C111        C  0.04657485  0.54560188  0.34412391     0.00900
H112        H  0.03323447  0.57890115  0.38956806     0.08500
H113        H  0.04966940  0.53974480  0.32436237     0.07600
N114        N  0.99350708  0.48969910  0.45503700    -0.36200
N115        N  0.98018848  0.46073857  0.45416463    -0.28400
C116        C  0.96778050  0.44876146  0.47833146    -0.03600
C117        C  0.97358404  0.47124299  0.99518118     0.05000
C118        C  0.98993822  0.49687893  0.47976084     0.03100
H119        H  0.95553161  0.42541645  0.98325178     0.08200
H120        H  0.99857781  0.51914167  0.98598848     0.07000
N121        N  0.95683371  0.51989585  0.13359914    -0.27400
N122        N  0.93877813  0.50306078  0.15349194    -0.35200
C123        C  0.94312860  0.51996840  0.17456527     0.01000
C124        C  0.96495973  0.54881197  0.16762990     0.07000
C125        C  0.97342167  0.54804989  0.14162496    -0.06100
H126        H  0.93284233  0.51157013  0.19414070     0.07600
H127        H  0.99125286  0.56626178  0.12992077     0.08800
Cu128      Cu  0.91422580  0.45749391  0.15343886     0.44200
Cu129      Cu  0.95972347  0.50262481  0.09781756     0.42000
Cu130      Cu  0.92254323  0.42244238  0.09659099     0.43900
N131        N  0.90293855  0.41464295  0.15439091    -0.34800
N132        N  0.90660593  0.40184695  0.13389862    -0.29000
C133        C  0.90308510  0.37676729  0.14260657    -0.05100
C134        C  0.89712951  0.37384618  0.16989502     0.07100
C135        C  0.89697767  0.39813350  0.17658776     0.00900
H136        H  0.90710045  0.36312297  0.13042710     0.08500
H137        H  0.89554691  0.40488580  0.19648459     0.07600
N138        N  0.94439844  0.45055759  0.06372026    -0.36200
N139        N  0.95809486  0.47958265  0.06436617    -0.28400
C140        C  0.97048617  0.49127304  0.04016243    -0.03600
C141        C  0.96434165  0.46859096  0.02346559     0.05000
C142        C  0.94776942  0.44307096  0.03903733     0.03100
H143        H  0.98308469  0.51461296  0.03514995     0.08200
H144        H  0.93891497  0.42071736  0.03295435     0.07000
C145        C  0.94745582  0.73407460  0.29704460     0.80100
N146        N  0.97243385  0.76099950  0.30051968    -0.78200
C147        C  0.99825433  0.76420328  0.30310231     0.82600
N148        N  0.99897085  0.73995953  0.30205278    -0.78100
C149        C  0.97428908  0.71291621  0.29798419     0.82700
N150        N  0.94839554  0.70988840  0.29548167    -0.79800
C151        C  0.74197165  0.75731087  0.30912154     0.80100
N152        N  0.71600645  0.73083112  0.31324409    -0.78200
C153        C  0.71496551  0.70598081  0.31801580     0.82600
N154        N  0.74002919  0.70732386  0.31778360    -0.78100
C155        C  0.76605638  0.73318796  0.31209247     0.82700
N156        N  0.76705066  0.75832546  0.30835896    -0.79800
N157        N  0.58359587  0.52221980  0.32400088    -0.27400
N158        N  0.60057173  0.54036270  0.34267204    -0.35200
C159        C  0.59082514  0.52639630  0.36660036     0.01000
C160        C  0.56650267  0.49812930  0.36283604     0.07000
C161        C  0.56272523  0.49618780  0.33555841    -0.06100
H162        H  0.59915992  0.53696126  0.38548926     0.07600
H163        H  0.54432974  0.47840067  0.32521041     0.08800
Cu164      Cu  0.63151367  0.58508122  0.33585536     0.44200
Cu165      Cu  0.58361364  0.53577605  0.28528029     0.42000
Cu166      Cu  0.60912144  0.61221757  0.28325730     0.43900
N167        N  0.65381045  0.62930854  0.32485601    -0.34800
N168        N  0.64393763  0.63932598  0.30723336    -0.29000
C169        C  0.66336102  0.66857872  0.30372716    -0.05100
C170        C  0.68683339  0.67725932  0.31945965     0.07100
C171        C  0.68018019  0.65185533  0.33255201     0.00900
H172        H  0.66180516  0.68196482  0.28891539     0.08500
H173        H  0.69396907  0.64968672  0.34577990     0.07600
N174        N  0.58374867  0.58258648  0.25417616    -0.36200
N175        N  0.57648867  0.55515791  0.25360985    -0.28400
C176        C  0.56039032  0.54189960  0.23208379    -0.03600
C177        C  0.55726670  0.56195422  0.21867086     0.05000
C178        C  0.57208544  0.58737359  0.23334896     0.03100
H179        H  0.54972200  0.51874911  0.22781299     0.08200
H180        H  0.57348060  0.60755687  0.22965968     0.07000
N181        N  0.03644313  0.62029795  0.31355370    -0.27400
N182        N  0.04175859  0.60781640  0.29389698    -0.35200
C183        C  0.04850063  0.58991477  0.30428548     0.01000
C184        C  0.04705176  0.59083856  0.33182141     0.07000
C185        C  0.03959459  0.61054840  0.33702052    -0.06100
H186        H  0.05115767  0.57498226  0.29267331     0.07600
H187        H  0.03410330  0.61525016  0.35631311     0.08800
Cu188      Cu  0.03089070  0.60780816  0.25469202     0.44200
Cu189      Cu  0.01851157  0.64419513  0.30764983     0.42000
Cu190      Cu  0.97729836  0.62456961  0.24754067     0.43900
N191        N  0.00557823  0.59696897  0.22145999    -0.34800
N192        N  0.98484145  0.60167484  0.21956763    -0.29000
C193        C  0.96867138  0.58721989  0.19843662    -0.05100
C194        C  0.98004979  0.57315946  0.18622446     0.07100
C195        C  0.00323791  0.57955594  0.20147360     0.00900
H196        H  0.94887027  0.58535141  0.19348506     0.08500
H197        H  0.01557271  0.56987431  0.19975624     0.07600
N198        N  0.97832727  0.65261596  0.27577957    -0.36200
N199        N  0.99482037  0.66107966  0.29689847    -0.28400
C200        C  0.99446010  0.68271410  0.30886325    -0.03600
C201        C  0.97643996  0.68769079  0.29494955     0.05000
C202        C  0.96654917  0.66825347  0.27408079     0.03100
H203        H  0.00734136  0.69479394  0.32578820     0.08200
H204        H  0.95382854  0.66731507  0.25764633     0.07000
C205        C  0.21043961  0.01305749  0.26373197     0.80100
N206        N  0.18549794  0.98860348  0.27409764    -0.78200
C207        C  0.18525224  0.96557842  0.28422511     0.82600
N208        N  0.21045634  0.96715217  0.28410220    -0.78100
C209        C  0.23537354  0.99090397  0.27301181     0.82700
N210        N  0.23535701  0.01379442  0.26264076    -0.79800
C211        C  0.19504039  0.18424554  0.22720588     0.80100
N212        N  0.21665612  0.21161768  0.23512743    -0.78200
C213        C  0.21417745  0.23464446  0.23249916     0.82600
N214        N  0.18959020  0.23021203  0.22249919    -0.78100
C215        C  0.16691109  0.20264236  0.21621087     0.82700
N216        N  0.16992867  0.17981856  0.21831831    -0.79800
C217        C  0.98380450  0.19798712  0.21121079     0.80100
N218        N  0.98487505  0.22286165  0.21681790    -0.78200
C219        C  0.95999659  0.22213732  0.21760536     0.82600
N220        N  0.93402650  0.19644791  0.21316570    -0.78100
C221        C  0.93240973  0.17122720  0.20867463     0.82700
N222        N  0.95742699  0.17232706  0.20744098    -0.79800
N223        N  0.90949365  0.32474171  0.20626072    -0.27400
N224        N  0.90436295  0.33700051  0.22621837    -0.35200
C225        C  0.89710851  0.35469331  0.21631726     0.01000
C226        C  0.89782787  0.35363710  0.18873674     0.07000
C227        C  0.90560048  0.33426810  0.18304558    -0.06100
H228        H  0.89413221  0.36923013  0.22823521     0.07600
H229        H  0.91042980  0.32936889  0.16353802     0.08800
Cu230      Cu  0.91517180  0.33541146  0.26503810     0.44200
Cu231      Cu  0.92685521  0.30036021  0.21198253     0.42000
Cu232      Cu  0.96696661  0.31505215  0.27257521     0.43900
N233        N  0.94076632  0.34550143  0.29784545    -0.34800
N234        N  0.96129245  0.34044990  0.29976670    -0.29000
C235        C  0.97786634  0.35547991  0.32062207    -0.05100
C236        C  0.96677509  0.37002053  0.33256856     0.07100
C237        C  0.94344042  0.36333735  0.31752192     0.00900
H238        H  0.99742507  0.35698462  0.32582271     0.08500
H239        H  0.93106600  0.37297924  0.31920437     0.07600
N240        N  0.96271101  0.28548184  0.24367654    -0.36200
N241        N  0.94684555  0.27949260  0.22235621    -0.28400
C242        C  0.94480534  0.25708066  0.20940586    -0.03600
C243        C  0.96059160  0.24880408  0.22273262     0.05000
C244        C  0.97168476  0.26721261  0.24444645     0.03100
H245        H  0.93190437  0.24686349  0.19200302     0.08200
H246        H  0.98354694  0.26597641  0.26056923     0.07000
N247        N  0.33485637  0.95540916  0.20537345    -0.27400
N248        N  0.33319247  0.93202478  0.21493746    -0.35200
C249        C  0.34735391  0.92499269  0.19815301     0.01000
C250        C  0.35881091  0.94483452  0.17685304     0.07000
C251        C  0.35034319  0.96385356  0.18190088    -0.06100
H252        H  0.35058477  0.90769312  0.20214302     0.07600
H253        H  0.35629717  0.98320410  0.17021085     0.08800
Cu254      Cu  0.31835468  0.91384582  0.25279606     0.44200
Cu255      Cu  0.31750064  0.97492389  0.22692609     0.42000
Cu256      Cu  0.30419238  0.95239495  0.29839424     0.43900
N257        N  0.31895129  0.90848673  0.29344524    -0.34800
N258        N  0.31522170  0.92420837  0.31073391    -0.29000
C259        C  0.32248712  0.92051582  0.33507739    -0.05100
C260        C  0.33130052  0.90154282  0.33283773     0.07100
C261        C  0.32862157  0.89424115  0.30618896     0.00900
H262        H  0.32317614  0.93228881  0.35261453     0.08500
H263        H  0.33569297  0.88172858  0.29632095     0.07600
N264        N  0.28919363  0.97461526  0.27963754    -0.36200
N265        N  0.29414178  0.98341908  0.25425394    -0.28400
C266        C  0.27767008  0.99356015  0.24859826    -0.03600
C267        C  0.26152038  0.99059401  0.27140265     0.05000
C268        C  0.26928896  0.97841750  0.29053038     0.03100
H269        H  0.27528756  0.99961544  0.22876333     0.08200
H270        H  0.25945021  0.97065267  0.31034452     0.07000
C271        C  0.72385573  0.92607536  0.26754721     0.80100
N272        N  0.69737037  0.92199754  0.26693663    -0.78200
C273        C  0.69499376  0.94350562  0.25683275     0.82600
N274        N  0.71925777  0.96927368  0.24742986    -0.78100
C275        C  0.74602138  0.97422472  0.24956174     0.82700
N276        N  0.74813754  0.95252256  0.25955516    -0.79800
N277        N  0.53996853  0.89004988  0.30386353    -0.27400
N278        N  0.51848927  0.87985975  0.28713983    -0.35200
C279        C  0.49390340  0.87203859  0.30067054     0.01000
C280        C  0.50012552  0.87781718  0.32731748     0.07000
C281        C  0.52958095  0.88918150  0.32872513    -0.06100
H282        H  0.47369107  0.86518532  0.29139493     0.07600
H283        H  0.54280271  0.89781723  0.34615372     0.08800
Cu284      Cu  0.52510858  0.88492793  0.24640626     0.44200
Cu285      Cu  0.58248013  0.90800639  0.28985062     0.42000
Cu286      Cu  0.59716108  0.93631051  0.21936540     0.43900
N287        N  0.53358827  0.90457151  0.20922360    -0.34800
N288        N  0.55986133  0.92479168  0.19911623    -0.29000
C289        C  0.55690045  0.93599315  0.17633030    -0.05100
C290        C  0.52727571  0.92214059  0.17237759     0.07100
C291        C  0.51336247  0.90238477  0.19357232     0.00900
H292        H  0.57482271  0.95382539  0.16438964     0.08500
H293        H  0.49015623  0.88852673  0.19823961     0.07600
N294        N  0.62740553  0.93684758  0.24371162    -0.36200
N295        N  0.62153645  0.92515490  0.26817683    -0.28400
C296        C  0.64473080  0.92586219  0.27651580    -0.03600
C297        C  0.66637275  0.93910943  0.25667526     0.05000
C298        C  0.65480437  0.94598572  0.23625781     0.03100
H299        H  0.64573687  0.91732312  0.29563786     0.08200
H300        H  0.66501759  0.95561702  0.21690172     0.07000
N301        N  0.33253810  0.41996367  0.25157198    -0.27400
N302        N  0.31667564  0.40256532  0.23207997    -0.35200
C303        C  0.32523840  0.41834654  0.20906560     0.01000
C304        C  0.34778670  0.44710266  0.21424212     0.07000
C305        C  0.35168871  0.44737156  0.24146425    -0.06100
H306        H  0.31751892  0.40891266  0.18968308     0.07600
H307        H  0.36902611  0.46532628  0.25260678     0.08800
Cu308      Cu  0.28911586  0.35724063  0.23659612     0.44200
Cu309      Cu  0.33218559  0.40387843  0.28920910     0.42000
Cu310      Cu  0.30292832  0.32554886  0.29312813     0.43900
N311        N  0.26732024  0.31244495  0.24411555    -0.34800
N312        N  0.27332060  0.30069028  0.26372657    -0.29000
C313        C  0.25573251  0.27107040  0.26228043    -0.05100
C314        C  0.23764201  0.26408258  0.24102726     0.07100
C315        C  0.24548706  0.29076471  0.23003972     0.00900
H316        H  0.25539579  0.25579623  0.27623105     0.08500
H317        H  0.23615540  0.29421527  0.21296372     0.07600
N318        N  0.32816473  0.35559791  0.32236147    -0.36200
N319        N  0.33676075  0.38351209  0.32174032    -0.28400
C320        C  0.35235387  0.39699324  0.34341338    -0.03600
C321        C  0.35393761  0.37674903  0.35824480     0.05000
C322        C  0.33868452  0.35082393  0.34421043     0.03100
H323        H  0.36364105  0.42036419  0.34699309     0.08200
H324        H  0.33615358  0.33027979  0.34909588     0.07000
C325        C  0.77271990  0.00303076  0.24119512    -0.20000
C326        C  0.79814315  0.01647820  0.25633478     0.36300
C327        C  0.82315731  0.04366099  0.24756930    -0.25900
C328        C  0.82325631  0.05763914  0.22411478     0.02700
C329        C  0.79811696  0.04419966  0.20876266     0.27500
C330        C  0.77291723  0.01707825  0.21762385    -0.25100
N331        N  0.79828049  0.00285353  0.28083627    -0.82500
H332        H  0.84260013  0.05430478  0.25928015     0.13300
C333        C  0.84965896  0.08704218  0.21686764     0.02700
N334        N  0.79851809  0.05778201  0.18402649    -0.81000
H335        H  0.75351392  0.00660386  0.20588132     0.18100
C336        C  0.87283070  0.08918299  0.20264296    -0.25900
C337        C  0.89968845  0.11657639  0.19868256     0.36200
C338        C  0.90351041  0.14234102  0.20923739    -0.19900
C339        C  0.87964393  0.14011285  0.22240543    -0.25100
C340        C  0.85287791  0.11270478  0.22654417     0.27500
H341        H  0.87031003  0.06937988  0.19523426     0.13300
N342        N  0.92297619  0.11801138  0.18408485    -0.82400
H343        H  0.88218609  0.15960686  0.23064397     0.18100
N344        N  0.82945014  0.11058592  0.24178275    -0.81000
H345        H  0.91570584  0.10967557  0.16508705     0.33800
H346        H  0.92754446  0.10427997  0.19382965     0.38300
H347        H  0.83564178  0.13140108  0.24821169     0.33700
H348        H  0.81209674  0.10331300  0.22912314     0.30400
H349        H  0.77842385  0.04472053  0.17489936     0.33700
H350        H  0.80120304  0.07773591  0.18836569     0.30400
H351        H  0.78343406  0.00259825  0.29429995     0.38300
H352        H  0.81872609  0.01551244  0.28939049     0.33800
C353        C  0.01084814  0.19830214  0.20885714    -0.20000
C354        C  0.03772920  0.22113868  0.21932088     0.36300
C355        C  0.06231538  0.22000753  0.21641602    -0.25900
C356        C  0.06077555  0.19648659  0.20368953     0.02700
C357        C  0.03413402  0.17368235  0.19326066     0.27500
C358        C  0.00953196  0.17481695  0.19593463    -0.25100
N359        N  0.03999580  0.24505213  0.23342341    -0.82500
H360        H  0.08274205  0.23724094  0.22482094     0.13300
C361        C  0.08706793  0.19564996  0.20282207     0.02700
N362        N  0.03221384  0.14954806  0.17991891    -0.81000
H363        H  0.98923211  0.15722667  0.18766148     0.18100
C364        C  0.08598375  0.17230480  0.21567897    -0.25900
C365        C  0.11134080  0.17304778  0.21900139     0.36200
C366        C  0.13867643  0.19780722  0.20932252    -0.19900
C367        C  0.13935472  0.22028953  0.19507116    -0.25100
C368        C  0.11383992  0.21935112  0.19154879     0.27500
H369        H  0.06547072  0.15401160  0.22439314     0.13300
N370        N  0.10872802  0.14920857  0.23369589    -0.82400
H371        H  0.16005593  0.23909282  0.18721001     0.18100
N372        N  0.11505787  0.24271339  0.17713415    -0.81000
H373        H  0.11570474  0.13884287  0.22123399     0.33800
H374        H  0.12195432  0.15764677  0.25009426     0.38300
H375        H  0.13638048  0.25860364  0.17024459     0.33700
H376        H  0.10252039  0.23353835  0.16021985     0.30400
H377        H  0.01102120  0.13446618  0.17352343     0.33700
H378        H  0.04578579  0.15815839  0.16274858     0.30400
H379        H  0.02726380  0.23620124  0.25107525     0.38300
H380        H  0.06141505  0.26027655  0.23915243     0.33800
C381        C  0.19882759  0.15952985  0.22925324    -0.20000
C382        C  0.18100349  0.13269016  0.21566285     0.36300
C383        C  0.18486491  0.10976750  0.21951114    -0.25900
C384        C  0.20628735  0.11311876  0.23626357     0.02700
C385        C  0.22468221  0.14000391  0.24913944     0.27500
C386        C  0.22088751  0.16295181  0.24541106    -0.25100
N387        N  0.15910418  0.12865629  0.19800918    -0.82500
H388        H  0.17085077  0.08894951  0.20966292     0.13300
C389        C  0.20728455  0.08731869  0.24220757     0.02700
N390        N  0.24659725  0.14357468  0.26652627    -0.81000
H391        H  0.23480721  0.18334268  0.25586142     0.18100
C392        C  0.23159106  0.08731618  0.23398942    -0.25900
C393        C  0.23316226  0.06319755  0.24008988     0.36200
C394        C  0.21005116  0.03885534  0.25521490    -0.19900
C395        C  0.18568180  0.03912340  0.26307180    -0.25100
C396        C  0.18413048  0.06303061  0.25682828     0.27500
H397        H  0.24926662  0.10613549  0.22264682     0.13300
N398        N  0.25796863  0.06340875  0.23081574    -0.82400
H399        H  0.16779979  0.02082878  0.27469518     0.18100
N400        N  0.15928825  0.06300913  0.26567196    -0.81000
H401        H  0.27316590  0.08320249  0.22057060     0.33800
H402        H  0.25060127  0.04664832  0.21692446     0.38300
H403        H  0.14396605  0.04337029  0.27604670     0.33700
H404        H  0.16655047  0.08002807  0.27927160     0.30400
H405        H  0.25843670  0.16475461  0.27439231     0.33700
H406        H  0.23587343  0.12881629  0.28271109     0.30400
H407        H  0.16990649  0.14331132  0.18175776     0.38300
H408        H  0.14751669  0.10743644  0.19025238     0.33800
C409        C  0.74207410  0.78431765  0.30545113    -0.20000
C410        C  0.76463174  0.80993302  0.29123497     0.36300
C411        C  0.76169125  0.83345108  0.28669261    -0.25900
C412        C  0.73700407  0.83211556  0.29625663     0.02700
C413        C  0.71506604  0.80714217  0.31116659     0.27500
C414        C  0.71776384  0.78357580  0.31549836    -0.25100
N415        N  0.78983081  0.81168393  0.28054956    -0.82500
H416        H  0.77847783  0.85273669  0.27518590     0.13300
C417        C  0.73366839  0.85639052  0.28957858     0.02700
N418        N  0.69001081  0.80577465  0.32172135    -0.81000
H419        H  0.70055727  0.76437936  0.32679650     0.18100
C420        C  0.70980383  0.85008301  0.27471288    -0.25900
C421        C  0.70596358  0.87237447  0.26747540     0.36200
C422        C  0.72637660  0.90162565  0.27547333    -0.19900
C423        C  0.75029874  0.90791914  0.29032175    -0.25100
C424        C  0.75400082  0.88552987  0.29767606     0.27500
H425        H  0.69439391  0.82769556  0.26831367     0.13300
N426        N  0.68194686  0.86554271  0.25135547    -0.82400
H427        H  0.76598081  0.93035274  0.29645336     0.18100
N428        N  0.77813233  0.89216193  0.31350340    -0.81000
H429        H  0.66891038  0.84300329  0.24735479     0.33800
H430        H  0.69065952  0.87659425  0.23294661     0.38300
H431        H  0.79110053  0.91463545  0.31778615     0.33700
H432        H  0.76955195  0.88078294  0.33178855     0.30400
H433        H  0.67570344  0.78577602  0.33205795     0.33700
H434        H  0.69735763  0.82245601  0.33568889     0.30400
H435        H  0.80236180  0.81369646  0.29666194     0.38300
H436        H  0.80301088  0.83093348  0.26887709     0.33800
C437        C  0.15716071  0.93745909  0.29130865    -0.20000
C438        C  0.15521652  0.91714621  0.31013159     0.36300
C439        C  0.12882189  0.88926507  0.31366595    -0.25900
C440        C  0.10444839  0.88146309  0.29892949     0.02700
C441        C  0.10596746  0.90206203  0.28092671     0.27500
C442        C  0.13223071  0.92999306  0.27752180    -0.25100
N443        N  0.17998184  0.92483510  0.32549919    -0.82500
H444        H  0.12727283  0.87335997  0.32772306     0.13300
C445        C  0.07779117  0.85118564  0.30164645     0.02700
N446        N  0.08112311  0.89415521  0.26555940    -0.81000
H447        H  0.13356962  0.94545864  0.26306344     0.18100
C448        C  0.05191871  0.84688876  0.31177686    -0.25900
C449        C  0.02585382  0.81855546  0.31349826     0.36200
C450        C  0.02567145  0.79409435  0.30435470    -0.19900
C451        C  0.05194074  0.79848956  0.29497294    -0.25100
C452        C  0.07797541  0.82681805  0.29342377     0.27500
H453        H  0.05213852  0.86578062  0.31834779     0.13300
N454        N  0.99972625  0.81460826  0.32462718    -0.82400
H455        H  0.05203929  0.77992667  0.28794699     0.18100
N456        N  0.10447867  0.83108346  0.28296441    -0.81000
H457        H  0.00360890  0.83486404  0.33007770     0.33800
H458        H  0.99402765  0.80195066  0.34222419     0.38300
H459        H  0.10095770  0.81087874  0.27792833     0.33700
H460        H  0.11041530  0.84356210  0.26522746     0.30400
H461        H  0.08583414  0.91186323  0.25326723     0.33700
H462        H  0.07702617  0.87721678  0.25289169     0.30400
H463        H  0.18462654  0.94230118  0.33767625     0.38300
H464        H  0.17490067  0.90731528  0.33827051     0.33800
C465        C  0.91960620  0.73161667  0.29661939    -0.20000
C466        C  0.91795261  0.75316802  0.28302291     0.36300
C467        C  0.89265744  0.75290702  0.28602408    -0.25900
C468        C  0.86900977  0.73159163  0.30230000     0.02700
C469        C  0.87025507  0.70954679  0.31536956     0.27500
C470        C  0.89551472  0.70959606  0.31216862    -0.25100
N471        N  0.94204390  0.77528292  0.26625218    -0.82500
H472        H  0.89133122  0.76943728  0.27565896     0.13300
C473        C  0.84290819  0.73245993  0.30499132     0.02700
N474        N  0.84619050  0.68773908  0.33233403    -0.81000
H475        H  0.89693519  0.69326907  0.32280607     0.18100
C476        C  0.81648405  0.70909497  0.29515272    -0.25900
C477        C  0.79141083  0.70939251  0.29647271     0.36200
C478        C  0.79264607  0.73330220  0.30854725    -0.19900
C479        C  0.81932768  0.75705678  0.31783131    -0.25100
C480        C  0.84451211  0.75683218  0.31623630     0.27500
H481        H  0.81561712  0.69081265  0.28593617     0.13300
N482        N  0.76488995  0.68583528  0.28501996    -0.82400
H483        H  0.82035000  0.77547709  0.32690415     0.18100
N484        N  0.87163481  0.78105569  0.32618888    -0.81000
H485        H  0.76768765  0.67002917  0.27695590     0.33800
H486        H  0.76041504  0.69485661  0.26907951     0.38300
H487        H  0.86918419  0.79728314  0.33371528     0.33700
H488        H  0.87701304  0.77301109  0.34226116     0.30400
H489        H  0.85059093  0.67317248  0.34051759     0.33700
H490        H  0.84422677  0.69874143  0.34832695     0.30400
H491        H  0.93739855  0.78956600  0.25782908     0.38300
H492        H  0.94454807  0.76447423  0.25042038     0.33800
N493        N  0.41020769  0.95936171  0.62160796    -0.27400
N494        N  0.41063841  0.93967783  0.63633719    -0.35200
C495        C  0.39211812  0.93145057  0.65735028     0.01000
C496        C  0.37921347  0.94670958  0.65617739     0.07000
C497        C  0.39116978  0.96437946  0.63316704    -0.06100
H498        H  0.38939048  0.91643266  0.67304118     0.07600
H499        H  0.38663860  0.97981245  0.62561823     0.08800
Cu500      Cu  0.44000464  0.92865351  0.63055353     0.44200
Cu501      Cu  0.43646185  0.97605034  0.58686982     0.42000
Cu502      Cu  0.49985739  0.96829161  0.58559021     0.43900
N503        N  0.47781999  0.93084231  0.63466181    -0.34800
N504        N  0.50163159  0.94746626  0.61946212    -0.29000
C505        C  0.52348618  0.94690231  0.62993437    -0.05100
C506        C  0.51243398  0.92888102  0.65275386     0.07100
C507        C  0.48349420  0.91916726  0.65495171     0.00900
H508        H  0.54562607  0.95883584  0.62177332     0.08500
H509        H  0.46787749  0.90566794  0.67085736     0.07600
N510        N  0.48086929  0.97286241  0.55235756    -0.36200
N511        N  0.45861313  0.97556757  0.55279274    -0.28400
C512        C  0.44835754  0.97145444  0.52802222    -0.03600
C513        C  0.46455608  0.96554577  0.51130680     0.05000
C514        C  0.48514328  0.96694169  0.52732404     0.03100
H515        H  0.42873568  0.96998568  0.52316095     0.08200
H516        H  0.50028877  0.96124188  0.52181097     0.07000
N517        N  0.46449721  0.88919658  0.88309288    -0.27400
N518        N  0.44273968  0.87475460  0.86660719    -0.35200
C519        C  0.45169187  0.86701405  0.84514795     0.01000
C520        C  0.48052812  0.87703909  0.84815593     0.07000
C521        C  0.48795161  0.89087311  0.87253427    -0.06100
H522        H  0.43877716  0.85681689  0.82775413     0.07600
H523        H  0.50935338  0.90317041  0.88098676     0.08800
Cu524      Cu  0.40432103  0.87213875  0.87037993     0.44200
Cu525      Cu  0.46226348  0.91011675  0.91661710     0.42000
Cu526      Cu  0.40247654  0.91995329  0.91772845     0.43900
N527        N  0.37501597  0.88373475  0.86916021    -0.34800
N528        N  0.37480193  0.90212725  0.88590945    -0.29000
C529        C  0.35728651  0.90962915  0.87661213    -0.05100
C530        C  0.34624391  0.89541640  0.85276496     0.07100
C531        C  0.35779602  0.87906765  0.84878872     0.00900
H532        H  0.35479608  0.92608139  0.88536459     0.08500
H533        H  0.35598237  0.86680639  0.83123400     0.07600
N534        N  0.43331465  0.93502453  0.94697917    -0.36200
N535        N  0.45487579  0.93134835  0.94672634    -0.28400
C536        C  0.46996570  0.94260614  0.96910864    -0.03600
C537        C  0.45728413  0.95386958  0.48413562     0.05000
C538        C  0.43414015  0.94869480  0.96948503     0.03100
H539        H  0.48824670  0.94179892  0.47439942     0.08200
H540        H  0.41845193  0.95364117  0.47511664     0.07000
N541        N  0.50965173  0.53691636  0.66202246    -0.27400
N542        N  0.49762438  0.54666896  0.67791507    -0.35200
C543        C  0.51377160  0.55844644  0.69957993     0.01000
C544        C  0.53679958  0.55554120  0.69755086     0.07000
C545        C  0.53351594  0.54160652  0.67362208    -0.06100
H546        H  0.50775591  0.56617085  0.71663494     0.07600
H547        H  0.54698399  0.53473474  0.66559407     0.08800
Cu548      Cu  0.45573850  0.53569601  0.67411392     0.44200
Cu549      Cu  0.49158416  0.51654826  0.62601382     0.42000
Cu550      Cu  0.41482656  0.48783635  0.62104869     0.43900
N551        N  0.41099255  0.50569915  0.67663624    -0.34800
N552        N  0.39592165  0.48749037  0.65728557    -0.29000
C553        C  0.36962189  0.46548133  0.66726397    -0.05100
C554        C  0.36825869  0.46975790  0.69432471     0.07100
C555        C  0.39475334  0.49568972  0.69947378     0.00900
H556        H  0.35426651  0.44593064  0.65639719     0.08500
H557        H  0.40310371  0.50444644  0.71891132     0.07600
N558        N  0.44014894  0.48850852  0.58965974    -0.36200
N559        N  0.46808177  0.49883924  0.59137725    -0.28400
C560        C  0.47790039  0.49581558  0.56763109    -0.03600
C561        C  0.45500657  0.48282153  0.55027738     0.05000
C562        C  0.43142608  0.47848391  0.56492247     0.03100
H563        H  0.50000409  0.50234011  0.56341990     0.08200
H564        H  0.40947316  0.46859452  0.55820485     0.07000
N565        N  0.40056565  0.40658223  0.91522233    -0.27400
N566        N  0.41382191  0.39710760  0.90072548    -0.35200
C567        C  0.39769135  0.38273850  0.87956937    -0.03800
C568        C  0.37332254  0.38352712  0.88048360     0.07000
C569        C  0.37592404  0.39904347  0.90317848    -0.06100
H570        H  0.40481405  0.37523926  0.86318587     0.07600
H571        H  0.36181183  0.40574310  0.90964295     0.08800
Cu572      Cu  0.45705867  0.41217115  0.90453802     0.44200
Cu573      Cu  0.41823579  0.43180137  0.94927723     0.42000
Cu574      Cu  0.49598087  0.46617988  0.95387651     0.43900
N575        N  0.50164656  0.44344840  0.90155571    -0.34800
N576        N  0.51600301  0.46377136  0.91965749    -0.29000
C577        C  0.54256329  0.48493615  0.90945447    -0.05100
C578        C  0.54487936  0.47783070  0.88348200     0.07100
C579        C  0.51860513  0.45124933  0.87923638     0.00900
H580        H  0.55759657  0.50556874  0.91910048     0.08500
H581        H  0.51110437  0.44016548  0.86043200     0.07600
N582        N  0.47042768  0.46718568  0.98393396    -0.36200
N583        N  0.44208771  0.45502806  0.98242263    -0.28400
C584        C  0.43220589  0.45914096  0.50564651    -0.03600
C585        C  0.45549068  0.47454030  0.52244644     0.05000
C586        C  0.47932714  0.47930655  0.50797794     0.03100
H587        H  0.40965774  0.45092543  0.51017132     0.08200
H588        H  0.50147837  0.49034072  0.51455041     0.07000
N589        N  0.98589430  0.42240692  0.88524380    -0.27400
N590        N  0.00487534  0.43976420  0.86607340    -0.35200
C591        C  0.00253446  0.42320443  0.84531103     0.01000
C592        C  0.98113264  0.39400294  0.85170112     0.07000
C593        C  0.97071807  0.39431279  0.87700124    -0.06100
H594        H  0.01368786  0.43201501  0.82610362     0.07600
H595        H  0.95234731  0.37576552  0.88793825     0.08800
Cu596      Cu  0.02799129  0.48535023  0.86644426     0.44200
Cu597      Cu  0.97996461  0.43860910  0.92046409     0.42000
Cu598      Cu  0.01561672  0.51835024  0.92262811     0.43900
N599        N  0.03882926  0.52812165  0.86593958    -0.34800
N600        N  0.03367893  0.54013568  0.88614931    -0.29000
C601        C  0.03799387  0.56564816  0.87764728    -0.05100
C602        C  0.04608352  0.56971868  0.85076588     0.07100
C603        C  0.04657487  0.54560195  0.84412388     0.00900
H604        H  0.03323452  0.57890124  0.88956803     0.08500
H605        H  0.04966942  0.53974486  0.82436235     0.07600
N606        N  0.99350716  0.48969918  0.95503699    -0.36200
N607        N  0.98018860  0.46073866  0.95416467    -0.28400
C608        C  0.96778066  0.44876158  0.97833151    -0.03600
C609        C  0.97358391  0.47124286  0.49518116     0.05000
C610        C  0.98993831  0.49687904  0.97976083     0.03100
H611        H  0.95553141  0.42541633  0.48325170     0.08200
H612        H  0.99857776  0.51914156  0.48598853     0.07000
N613        N  0.95683370  0.51989573  0.63359914    -0.27400
N614        N  0.93877813  0.50306069  0.65349195    -0.35200
C615        C  0.94312862  0.51996833  0.67456527     0.01000
C616        C  0.96495974  0.54881189  0.66762987     0.07000
C617        C  0.97342166  0.54804978  0.64162493    -0.06100
H618        H  0.93284236  0.51157008  0.69414070     0.07600
H619        H  0.99125285  0.56626166  0.62992072     0.08800
Cu620      Cu  0.91422577  0.45749382  0.65343889     0.44200
Cu621      Cu  0.95972341  0.50262466  0.59781756     0.42000
Cu622      Cu  0.92254311  0.42244223  0.59659099     0.43900
N623        N  0.90293854  0.41464287  0.65439095    -0.34800
N624        N  0.90660590  0.40184685  0.63389866    -0.29000
C625        C  0.90308509  0.37676720  0.64260663    -0.05100
C626        C  0.89712952  0.37384612  0.66989508     0.07100
C627        C  0.89697770  0.39813344  0.67658781     0.00900
H628        H  0.90710040  0.36312286  0.63042716     0.08500
H629        H  0.89554694  0.40488575  0.69648464     0.07600
N630        N  0.94439828  0.45055742  0.56372023    -0.36200
N631        N  0.95809475  0.47958249  0.56436616    -0.28400
C632        C  0.97048608  0.49127288  0.54016243    -0.03600
C633        C  0.96434150  0.46859080  0.52346557     0.05000
C634        C  0.94776922  0.44307079  0.53903729     0.03100
H635        H  0.98308465  0.51461280  0.53514996     0.08200
H636        H  0.93891473  0.42071719  0.53295429     0.07000
C637        C  0.94745575  0.73407455  0.79704471     0.80100
N638        N  0.97243377  0.76099947  0.80051976    -0.78200
C639        C  0.99825426  0.76420326  0.80310241     0.82600
N640        N  0.99897079  0.73995952  0.80205288    -0.78100
C641        C  0.97428903  0.71291620  0.79798427     0.82700
N642        N  0.94839549  0.70988836  0.79548176    -0.79800
C643        C  0.74197160  0.75731085  0.80912177     0.80100
N644        N  0.71600639  0.73083109  0.81324427    -0.78200
C645        C  0.71496543  0.70598078  0.81801597     0.82600
N646        N  0.74002911  0.70732382  0.81778383    -0.78100
C647        C  0.76605632  0.73318791  0.81209273     0.82700
N648        N  0.76705061  0.75832542  0.80835924    -0.79800
N649        N  0.58359593  0.52221976  0.82400079    -0.27400
N650        N  0.60057178  0.54036265  0.84267196    -0.35200
C651        C  0.59082519  0.52639623  0.86660027     0.01000
C652        C  0.56650272  0.49812923  0.86283593     0.07000
C653        C  0.56272529  0.49618775  0.83555830    -0.06100
H654        H  0.59915996  0.53696117  0.88548917     0.07600
H655        H  0.54432979  0.47840063  0.82521029     0.08800
Cu656      Cu  0.63151366  0.58508117  0.83585535     0.44200
Cu657      Cu  0.58361368  0.53577608  0.78528022     0.42000
Cu658      Cu  0.60912136  0.61221757  0.78325738     0.43900
N659        N  0.65381038  0.62930850  0.82485607    -0.34800
N660        N  0.64393755  0.63932596  0.80723345    -0.29000
C661        C  0.66336095  0.66857870  0.80372728    -0.05100
C662        C  0.68683331  0.67725928  0.81945978     0.07100
C663        C  0.68018011  0.65185528  0.83255210     0.00900
H664        H  0.66180509  0.68196482  0.78891553     0.08500
H665        H  0.69396898  0.64968666  0.84577998     0.07600
N666        N  0.58374860  0.58258651  0.75417619    -0.36200
N667        N  0.57648866  0.55515796  0.75360983    -0.28400
C668        C  0.56039032  0.54189968  0.73208375    -0.03600
C669        C  0.55726665  0.56195429  0.71867088     0.05000
C670        C  0.57208534  0.58737362  0.73334902     0.03100
H671        H  0.54972205  0.51874920  0.72781291     0.08200
H672        H  0.57348045  0.60755689  0.72965979     0.07000
N673        N  0.03644317  0.62029801  0.81355365    -0.27400
N674        N  0.04175859  0.60781643  0.79389693    -0.35200
C675        C  0.04850062  0.58991480  0.80428544     0.01000
C676        C  0.04705179  0.59083863  0.83182137     0.07000
C677        C  0.03959464  0.61054848  0.83702047    -0.06100
H678        H  0.05115764  0.57498226  0.79267328     0.07600
H679        H  0.03410337  0.61525026  0.85631306     0.08800
Cu680      Cu  0.03089067  0.60780816  0.75469198     0.44200
Cu681      Cu  0.01851163  0.64419521  0.80764976     0.42000
Cu682      Cu  0.97729846  0.62456974  0.74754053     0.43900
N683        N  0.00557824  0.59696897  0.72145992    -0.34800
N684        N  0.98484149  0.60167488  0.71956752    -0.29000
C685        C  0.96867143  0.58721990  0.69843651    -0.05100
C686        C  0.98004981  0.57315942  0.68622441     0.07100
C687        C  0.00323791  0.57955590  0.70147357     0.00900
H688        H  0.94887034  0.58535144  0.69348492     0.08500
H689        H  0.01557269  0.56987423  0.69975626     0.07600
N690        N  0.97832735  0.65261606  0.77577948    -0.36200
N691        N  0.99482042  0.66107972  0.79689840    -0.28400
C692        C  0.99446010  0.68271411  0.80886325    -0.03600
C693        C  0.97643996  0.68769081  0.79494956     0.05000
C694        C  0.96654922  0.66825354  0.77408075     0.03100
H695        H  0.00734132  0.69479390  0.82578823     0.08200
H696        H  0.95382859  0.66731516  0.75764630     0.07000
C697        C  0.21043956  0.01305749  0.76373192     0.80100
N698        N  0.18549789  0.98860348  0.77409761    -0.78200
C699        C  0.18525218  0.96557843  0.78422509     0.82600
N700        N  0.21045628  0.96715218  0.78410218    -0.78100
C701        C  0.23537349  0.99090396  0.77301179     0.82700
N702        N  0.23535696  0.01379442  0.76264071    -0.79800
C703        C  0.19504049  0.18424561  0.72720566     0.80100
N704        N  0.21665622  0.21161773  0.73512723    -0.78200
C705        C  0.21417753  0.23464451  0.73249900     0.82600
N706        N  0.18959027  0.23021207  0.72249904    -0.78100
C707        C  0.16691117  0.20264241  0.71621070     0.82700
N708        N  0.16992876  0.17981861  0.71831810    -0.79800
C709        C  0.98380454  0.19798712  0.71121074     0.80100
N710        N  0.98487510  0.22286165  0.71681785    -0.78200
C711        C  0.95999663  0.22213731  0.71760538     0.82600
N712        N  0.93402653  0.19644788  0.71316578    -0.78100
C713        C  0.93240976  0.17122718  0.70867470     0.82700
N714        N  0.95742703  0.17232705  0.70744099    -0.79800
N715        N  0.90949363  0.32474165  0.70626081    -0.27400
N716        N  0.90436291  0.33700043  0.72621845    -0.35200
C717        C  0.89710846  0.35469323  0.71631733     0.01000
C718        C  0.89782786  0.35363703  0.68873682     0.07000
C719        C  0.90560048  0.33426804  0.68304566    -0.06100
H720        H  0.89413215  0.36923005  0.72823527     0.07600
H721        H  0.91042983  0.32936885  0.66353811     0.08800
Cu722      Cu  0.91517178  0.33541142  0.76503819     0.44200
Cu723      Cu  0.92685521  0.30036017  0.71198261     0.42000
Cu724      Cu  0.96696662  0.31505212  0.77257525     0.43900
N725        N  0.94076639  0.34550147  0.79784549    -0.34800
N726        N  0.96129251  0.34044993  0.79976672    -0.29000
C727        C  0.97786644  0.35547997  0.82062206    -0.05100
C728        C  0.96677523  0.37002062  0.83256855     0.07100
C729        C  0.94344053  0.36333743  0.81752193     0.00900
H730        H  0.99742518  0.35698467  0.82582269     0.08500
H731        H  0.93106611  0.37297932  0.81920440     0.07600
N732        N  0.96271103  0.28548181  0.74367658    -0.36200
N733        N  0.94684557  0.27949257  0.72235625    -0.28400
C734        C  0.94480536  0.25708063  0.70940590    -0.03600
C735        C  0.96059163  0.24880407  0.72273264     0.05000
C736        C  0.97168479  0.26721259  0.74444648     0.03100
H737        H  0.93190439  0.24686347  0.69200305     0.08200
H738        H  0.98354697  0.26597639  0.76056925     0.07000
N739        N  0.33485638  0.95540918  0.70537350    -0.27400
N740        N  0.33319246  0.93202478  0.71493749    -0.35200
C741        C  0.34735393  0.92499271  0.69815305     0.01000
C742        C  0.35881098  0.94483459  0.67685311     0.07000
C743        C  0.35034326  0.96385363  0.68190095    -0.06100
H744        H  0.35058477  0.90769313  0.70214305     0.07600
H745        H  0.35629728  0.98320420  0.67021096     0.08800
Cu746      Cu  0.31835460  0.91384576  0.75279606     0.44200
Cu747      Cu  0.31750063  0.97492390  0.72692612     0.42000
Cu748      Cu  0.30419228  0.95239488  0.79839423     0.43900
N749        N  0.31895125  0.90848669  0.79344523    -0.34800
N750        N  0.31522165  0.92420833  0.81073390    -0.29000
C751        C  0.32248709  0.92051579  0.83507737    -0.05100
C752        C  0.33130050  0.90154280  0.83283772     0.07100
C753        C  0.32862155  0.89424113  0.80618895     0.00900
H754        H  0.32317611  0.93228878  0.85261452     0.08500
H755        H  0.33569295  0.88172857  0.79632093     0.07600
N756        N  0.28919356  0.97461523  0.77963754    -0.36200
N757        N  0.29414174  0.98341908  0.75425395    -0.28400
C758        C  0.27767006  0.99356017  0.74859826    -0.03600
C759        C  0.26152033  0.99059400  0.77140264     0.05000
C760        C  0.26928887  0.97841746  0.79053037     0.03100
H761        H  0.27528757  0.99961549  0.72876334     0.08200
H762        H  0.25945010  0.97065261  0.81034450     0.07000
C763        C  0.72385578  0.92607534  0.76754720     0.80100
N764        N  0.69737041  0.92199749  0.76693660    -0.78200
C765        C  0.69499379  0.94350557  0.75683273     0.82600
N766        N  0.71925780  0.96927364  0.74742985    -0.78100
C767        C  0.74602142  0.97422470  0.74956174     0.82700
N768        N  0.74813758  0.95252255  0.75955516    -0.79800
N769        N  0.53996861  0.89004991  0.80386359    -0.27400
N770        N  0.51848938  0.87985985  0.78713986    -0.35200
C771        C  0.49390351  0.87203874  0.80067055     0.01000
C772        C  0.50012561  0.87781728  0.82731749     0.07000
C773        C  0.52958101  0.88918153  0.82872517    -0.06100
H774        H  0.47369120  0.86518552  0.79139492     0.07600
H775        H  0.54280276  0.89781720  0.84615379     0.08800
Cu776      Cu  0.52510873  0.88492802  0.74640630     0.44200
Cu777      Cu  0.58248020  0.90800633  0.78985069     0.42000
Cu778      Cu  0.59716115  0.93631050  0.71936540     0.43900
N779        N  0.53358837  0.90457152  0.70922361    -0.34800
N780        N  0.55986142  0.92479166  0.69911621    -0.29000
C781        C  0.55690053  0.93599312  0.67633028    -0.05100
C782        C  0.52727579  0.92214057  0.67237758     0.07100
C783        C  0.51336256  0.90238477  0.69357234     0.00900
H784        H  0.57482279  0.95382534  0.66438960     0.08500
H785        H  0.49015633  0.88852676  0.69823965     0.07600
N786        N  0.62740557  0.93684753  0.74371164    -0.36200
N787        N  0.62153649  0.92515483  0.76817684    -0.28400
C788        C  0.64473084  0.92586211  0.77651580    -0.03600
C789        C  0.66637278  0.93910938  0.75667526     0.05000
C790        C  0.65480440  0.94598569  0.73625783     0.03100
H791        H  0.64573692  0.91732303  0.79563784     0.08200
H792        H  0.66501762  0.95561700  0.71690174     0.07000
N793        N  0.33253799  0.41996371  0.75157203    -0.27400
N794        N  0.31667550  0.40256538  0.73208002    -0.35200
C795        C  0.32523824  0.41834662  0.70906566     0.01000
C796        C  0.34778656  0.44710273  0.71424218     0.07000
C797        C  0.35168859  0.44737161  0.74146431    -0.06100
H798        H  0.31751875  0.40891275  0.68968314     0.07600
H799        H  0.36902601  0.46532631  0.75260683     0.08800
Cu800      Cu  0.28911577  0.35724068  0.73659613     0.44200
Cu801      Cu  0.33218554  0.40387843  0.78920911     0.42000
Cu802      Cu  0.30292833  0.32554887  0.79312806     0.43900
N803        N  0.26732023  0.31244500  0.74411549    -0.34800
N804        N  0.27332062  0.30069031  0.76372647    -0.29000
C805        C  0.25573257  0.27107043  0.76228028    -0.05100
C806        C  0.23764206  0.26408262  0.74102712     0.07100
C807        C  0.24548707  0.29076476  0.73003963     0.00900
H808        H  0.25539588  0.25579625  0.77623088     0.08500
H809        H  0.23615539  0.29421533  0.71296365     0.07600
N810        N  0.32816477  0.35559790  0.82236141    -0.36200
N811        N  0.33676076  0.38351207  0.82174029    -0.28400
C812        C  0.35235388  0.39699322  0.84341336    -0.03600
C813        C  0.35393767  0.37674902  0.85824474     0.05000
C814        C  0.33868460  0.35082393  0.84421034     0.03100
H815        H  0.36364103  0.42036416  0.84699309     0.08200
H816        H  0.33615369  0.33027980  0.84909576     0.07000
C817        C  0.77271992  0.00303074  0.74119510    -0.20000
C818        C  0.79814318  0.01647818  0.75633475     0.36300
C819        C  0.82315733  0.04366098  0.74756926    -0.25900
C820        C  0.82325632  0.05763912  0.72411475     0.02700
C821        C  0.79811696  0.04419964  0.70876264     0.27500
C822        C  0.77291723  0.01707823  0.71762384    -0.25100
N823        N  0.79828056  0.00285351  0.78083622    -0.82500
H824        H  0.84260016  0.05430477  0.75928010     0.13300
C825        C  0.84965896  0.08704217  0.71686761     0.02700
N826        N  0.79851806  0.05778197  0.68402647    -0.81000
H827        H  0.75351391  0.00660383  0.70588132     0.18100
C828        C  0.87283072  0.08918298  0.70264295    -0.25900
C829        C  0.89968848  0.11657637  0.69868260     0.36200
C830        C  0.90351044  0.14234099  0.70923744    -0.19900
C831        C  0.87964395  0.14011283  0.72240546    -0.25100
C832        C  0.85287791  0.11270476  0.72654415     0.27500
H833        H  0.87031004  0.06937986  0.69523424     0.13300
N834        N  0.92297623  0.11801136  0.68408491    -0.82400
H835        H  0.88218611  0.15960684  0.73064401     0.18100
N836        N  0.82945013  0.11058591  0.74178271    -0.81000
H837        H  0.91570591  0.10967559  0.66508711     0.33800
H838        H  0.92754447  0.10427991  0.69382971     0.38300
H839        H  0.83564177  0.13140103  0.74821166     0.33700
H840        H  0.81209674  0.10331301  0.72912306     0.30400
H841        H  0.77842386  0.04472052  0.67489937     0.33700
H842        H  0.80120302  0.07773591  0.68836568     0.30400
H843        H  0.78343411  0.00259822  0.79429994     0.38300
H844        H  0.81872613  0.01551240  0.78939042     0.33800
C845        C  0.01084819  0.19830216  0.70885705    -0.20000
C846        C  0.03772924  0.22113866  0.71932084     0.36300
C847        C  0.06231542  0.22000751  0.71641596    -0.25900
C848        C  0.06077560  0.19648661  0.70368942     0.02700
C849        C  0.03413409  0.17368240  0.69326051     0.27500
C850        C  0.00953203  0.17481700  0.69593448    -0.25100
N851        N  0.03999583  0.24505208  0.73342342    -0.82500
H852        H  0.08274208  0.23724090  0.72482091     0.13300
C853        C  0.08706799  0.19564997  0.70282194     0.02700
N854        N  0.03221392  0.14954814  0.67991871    -0.81000
H855        H  0.98923218  0.15722674  0.68766130     0.18100
C856        C  0.08598382  0.17230483  0.71567885    -0.25900
C857        C  0.11134088  0.17304782  0.71900127     0.36200
C858        C  0.13867650  0.19780726  0.70932237    -0.19900
C859        C  0.13935477  0.22028955  0.69507100    -0.25100
C860        C  0.11383997  0.21935113  0.69154865     0.27500
H861        H  0.06547080  0.15401164  0.72439304     0.13300
N862        N  0.10872813  0.14920865  0.73369581    -0.82400
H863        H  0.16005597  0.23909285  0.68720984     0.18100
N864        N  0.11505792  0.24271341  0.67713403    -0.81000
H865        H  0.11570485  0.13884292  0.72123391     0.33800
H866        H  0.12195443  0.15764688  0.75009415     0.38300
H867        H  0.13638048  0.25860364  0.67024449     0.33700
H868        H  0.10252042  0.23353836  0.66021969     0.30400
H869        H  0.01102130  0.13446630  0.67352318     0.33700
H870        H  0.04578590  0.15815852  0.66274839     0.30400
H871        H  0.02726381  0.23620115  0.75107524     0.38300
H872        H  0.06141508  0.26027648  0.73915248     0.33800
C873        C  0.19882769  0.15952992  0.72925302    -0.20000
C874        C  0.18100370  0.13269029  0.71566252     0.36300
C875        C  0.18486508  0.10976761  0.71951083    -0.25900
C876        C  0.20628740  0.11311880  0.73626339     0.02700
C877        C  0.22468215  0.14000389  0.74913939     0.27500
C878        C  0.22088749  0.16295181  0.74541098    -0.25100
N879        N  0.15910451  0.12865650  0.69800872    -0.82500
H880        H  0.17085102  0.08894967  0.70966251     0.13300
C881        C  0.20728456  0.08731870  0.74220741     0.02700
N882        N  0.24659703  0.14357457  0.76652639    -0.81000
H883        H  0.23480710  0.18334263  0.75586142     0.18100
C884        C  0.23159112  0.08731623  0.73398939    -0.25900
C885        C  0.23316230  0.06319759  0.74008987     0.36200
C886        C  0.21005113  0.03885533  0.75521479    -0.19900
C887        C  0.18568170  0.03912335  0.76307154    -0.25100
C888        C  0.18413041  0.06303057  0.75682799     0.27500
H889        H  0.24926674  0.10613558  0.72264688     0.13300
N890        N  0.25796874  0.06340885  0.73081587    -0.82400
H891        H  0.16779962  0.02082869  0.77469484     0.18100
N892        N  0.15928811  0.06300905  0.76567152    -0.81000
H893        H  0.27316605  0.08320261  0.72057081     0.33800
H894        H  0.25060147  0.04664845  0.71692455     0.38300
H895        H  0.14396582  0.04337014  0.77604620     0.33700
H896        H  0.16655021  0.08002792  0.77927118     0.30400
H897        H  0.25843641  0.16475445  0.77439250     0.33700
H898        H  0.23587307  0.12881610  0.78271115     0.30400
H899        H  0.16990692  0.14331161  0.68175737     0.38300
H900        H  0.14751708  0.10743670  0.69025184     0.33800
C901        C  0.74207408  0.78431763  0.80545132    -0.20000
C902        C  0.76463181  0.80993303  0.79123526     0.36300
C903        C  0.76169132  0.83345109  0.78669283    -0.25900
C904        C  0.73700408  0.83211554  0.79625668     0.02700
C905        C  0.71506598  0.80714213  0.81116657     0.27500
C906        C  0.71776376  0.78357576  0.81549841    -0.25100
N907        N  0.78983095  0.81168399  0.78055005    -0.82500
H908        H  0.77847797  0.85273672  0.77518618     0.13300
C909        C  0.73366844  0.85639051  0.78957857     0.02700
N910        N  0.69001069  0.80577459  0.82172120    -0.81000
H911        H  0.70055713  0.76437930  0.82679649     0.18100
C912        C  0.70980397  0.85008303  0.77471272    -0.25900
C913        C  0.70596373  0.87237449  0.76747523     0.36200
C914        C  0.72637666  0.90162564  0.77547330    -0.19900
C915        C  0.75029870  0.90791910  0.79032186    -0.25100
C916        C  0.75400078  0.88552983  0.79767618     0.27500
H917        H  0.69439412  0.82769560  0.76831342     0.13300
N918        N  0.68194712  0.86554278  0.75135517    -0.82400
H919        H  0.76598070  0.93035268  0.79645357     0.18100
N920        N  0.77813218  0.89216185  0.81350366    -0.81000
H921        H  0.66891069  0.84300337  0.74735439     0.33800
H922        H  0.69065989  0.87659442  0.73294637     0.38300
H923        H  0.79110033  0.91463535  0.81778649     0.33700
H924        H  0.76955168  0.88078278  0.83178876     0.30400
H925        H  0.67570328  0.78577596  0.83205776     0.33700
H926        H  0.69735744  0.82245594  0.83568874     0.30400
H927        H  0.80236179  0.81369648  0.79666247     0.38300
H928        H  0.80301115  0.83093363  0.76887759     0.33800
C929        C  0.15716065  0.93745911  0.79130867    -0.20000
C930        C  0.15521650  0.91714622  0.81013157     0.36300
C931        C  0.12882188  0.88926507  0.81366594    -0.25900
C932        C  0.10444835  0.88146308  0.79892953     0.02700
C933        C  0.10596738  0.90206204  0.78092680     0.27500
C934        C  0.13223063  0.92999307  0.77752187    -0.25100
N935        N  0.17998184  0.92483510  0.82549914    -0.82500
H936        H  0.12727285  0.87335996  0.82772303     0.13300
C937        C  0.07779111  0.85118563  0.80164652     0.02700
N938        N  0.08112300  0.89415524  0.76555955    -0.81000
H939        H  0.13356951  0.94545866  0.76306354     0.18100
C940        C  0.05191864  0.84688877  0.81177686    -0.25900
C941        C  0.02585375  0.81855548  0.81349826     0.36200
C942        C  0.02567138  0.79409434  0.80435479    -0.19900
C943        C  0.05194068  0.79848953  0.79497312    -0.25100
C944        C  0.07797536  0.82681801  0.79342393     0.27500
H945        H  0.05213845  0.86578065  0.81834773     0.13300
N946        N  0.99972615  0.81460831  0.82462708    -0.82400
H947        H  0.05203924  0.77992662  0.78794724     0.18100
N948        N  0.10447862  0.83108338  0.78296463    -0.81000
H949        H  0.00360880  0.83486414  0.83007750     0.33800
H950        H  0.99402752  0.80195079  0.84222411     0.38300
H951        H  0.10095767  0.81087871  0.77792863     0.33700
H952        H  0.11041527  0.84356201  0.76522759     0.30400
H953        H  0.08583399  0.91186326  0.75326743     0.33700
H954        H  0.07702602  0.87721681  0.75289181     0.30400
H955        H  0.18462656  0.94230119  0.83767625     0.38300
H956        H  0.17490071  0.90731531  0.83827041     0.33800
C957        C  0.91960611  0.73161659  0.79661952    -0.20000
C958        C  0.91795241  0.75316774  0.78302279     0.36300
C959        C  0.89265726  0.75290679  0.78602398    -0.25900
C960        C  0.86900972  0.73159162  0.80230015     0.02700
C961        C  0.87025513  0.70954696  0.81536996     0.27500
C962        C  0.89551476  0.70959620  0.81216902    -0.25100
N963        N  0.94204357  0.77528240  0.76625180    -0.82500
H964        H  0.89133095  0.76943690  0.77565868     0.13300
C965        C  0.84290814  0.73245992  0.80499148     0.02700
N966        N  0.84619069  0.68773948  0.83233467    -0.81000
H967        H  0.89693532  0.69326937  0.82280665     0.18100
C968        C  0.81648397  0.70909488  0.79515302    -0.25900
C969        C  0.79141074  0.70939241  0.79647305     0.36200
C970        C  0.79264600  0.73330214  0.80854751    -0.19900
C971        C  0.81932765  0.75705679  0.81783144    -0.25100
C972        C  0.84451210  0.75683223  0.81623637     0.27500
H973        H  0.81561702  0.69081251  0.78593655     0.13300
N974        N  0.76488982  0.68583510  0.78502040    -0.82400
H975        H  0.82034999  0.77547714  0.82690421     0.18100
N976        N  0.87163485  0.78105581  0.82618878    -0.81000
H977        H  0.76768750  0.67002898  0.77695640     0.33800
H978        H  0.76041485  0.69485636  0.76907991     0.38300
H979        H  0.86918424  0.79728330  0.83371513     0.33700
H980        H  0.87701318  0.77301133  0.84226108     0.30400
H981        H  0.85059120  0.67317307  0.84051842     0.33700
H982        H  0.84422705  0.69874209  0.84832748     0.30400
H983        H  0.93739814  0.78956533  0.75782852     0.38300
H984        H  0.94454762  0.76447346  0.75042014     0.33800
loop_ 
_geom_bond_atom_site_label_1 
_geom_bond_atom_site_label_2 
_geom_bond_distance 
_geom_bond_site_symmetry_2 
_ccdc_geom_bond_type 
N1            N2   1.319       .  A
N1            C5   1.353       .  A
N1           Cu9   2.084       .  S
N2            C3   1.336       .  A
N2           Cu8   2.052       .  S
C3            C4   1.380       .  A
C3            H6   1.082       .  S
C4            C5   1.391       .  A
C4          C250   1.475       .  S
C5            H7   1.082       .  S
Cu8          N11   2.053       .  S
Cu9          N19   2.088       .  S
Cu10         N12   2.079       .  S
Cu10         N18   2.083       .  S
N11          N12   1.319       .  A
N11          C15   1.336       .  A
N12          C13   1.352       .  A
C13          C14   1.390       .  A
C13          H16   1.082       .  S
C14          C15   1.380       .  A
C14         C290   1.473       .  S
C15          H17   1.082       .  S
N18          N19   1.327       .  A
N18          C22   1.346       .  A
N19          C20   1.346       .  A
C20          C21   1.383       .  A
C20          H23   1.082       .  S
C21          C22   1.382       .  A
C21          C45   1.473   1_554  S
C22          H24   1.082       .  S
N25          N26   1.321       .  A
N25          C29   1.348       .  A
N25         Cu33   2.080       .  S
N26          C27   1.342       .  A
N26         Cu32   2.061       .  S
C27          C28   1.382       .  A
C27          H30   1.082       .  S
C28          C29   1.385       .  A
C28         C280   1.472       .  S
C29          H31   1.082       .  S
Cu32         N35   2.060       .  S
Cu33         N43   2.081       .  S
Cu34         N36   2.075       .  S
Cu34         N42   2.075       .  S
N35          N36   1.321       .  A
N35          C39   1.342       .  A
N36          C37   1.346       .  A
C37          C38   1.385       .  A
C37          H40   1.082       .  S
C38          C39   1.381       .  A
C38         C260   1.469       .  S
C39          H41   1.082       .  S
N42          N43   1.323       .  A
N42          C46   1.345       .  A
N43          C44   1.346       .  A
C44         C537   1.384       .  A
C44         H539   1.082       .  S
C45         C536   1.384       .  A
C45         C538   1.383       .  A
C46         C537   1.383       .  A
C46         H540   1.082       .  S
H47         C536   1.082       .  S
H48         C538   1.082       .  S
N49          N50   1.323       .  A
N49          C53   1.349       .  A
N49         Cu57   2.087       .  S
N50          C51   1.342       .  A
N50         Cu56   2.063       .  S
C51          C52   1.378       .  A
C51          H54   1.082       .  S
C52          C53   1.385       .  A
C52         C177   1.467       .  S
C53          H55   1.082       .  S
Cu56         N59   2.064       .  S
Cu57         N67   2.088       .  S
Cu58         N60   2.069       .  S
Cu58         N66   2.069       .  S
N59          N60   1.321       .  A
N59          C63   1.344       .  A
N60          C61   1.344       .  A
C61          C62   1.385       .  A
C61          H64   1.082       .  S
C62          C63   1.383       .  A
C62         C304   1.473       .  S
C63          H65   1.082       .  S
N66          N67   1.323       .  A
N66          C70   1.345       .  A
N67          C68   1.346       .  A
C68          C69   1.386       .  A
C68          H71   1.082       .  S
C69          C70   1.381       .  A
C69          C93   1.473       .  S
C70          H72   1.082       .  S
N73          N74   1.323       .  A
N73          C77   1.347       .  A
N73         Cu81   2.089       .  S
N74          C75   1.344       .  A
N74         Cu80   2.067       .  S
C75          C76   1.379       .  A
C75          H78   1.082       .  S
C76          C77   1.385       .  A
C76         C321   1.468       .  S
C77          H79   1.082       .  S
Cu80         N83   2.068       .  S
Cu81         N91   2.089       .  S
Cu82         N84   2.065       .  S
Cu82         N90   2.066       .  S
N83          N84   1.320       .  A
N83          C87   1.344       .  A
N84          C85   1.344       .  A
C85          C86   1.384       .  A
C85          H88   1.082       .  S
C86          C87   1.384       .  A
C86         C160   1.472       .  S
C87          H89   1.082       .  S
N90          N91   1.323       .  A
N90         C586   1.343       .  A
N91         C584   1.348       .  A
C92         N583   1.348   1_554  A
C92          C93   1.387       .  A
C92          H95   1.082       .  S
C93          C94   1.380       .  A
C94         N582   1.343   1_554  A
C94          H96   1.082       .  S
N97          N98   1.322   1_655  A
N97         C101   1.347       .  A
N97        Cu105   2.081       .  S
N98          C99   1.345       .  A
N98        Cu104   2.070       .  S
C99         C100   1.381   1_455  A
C99         H102   1.082       .  S
C100        C101   1.384       .  A
C100        C236   1.467       .  S
C101        H103   1.082       .  S
Cu104       N107   2.070       .  S
Cu105       N115   2.081       .  S
Cu106       N108   2.076       .  S
Cu106       N114   2.077   1_455  S
N107        N108   1.322       .  A
N107        C111   1.343       .  A
N108        C109   1.347       .  A
C109        C110   1.385       .  A
C109        H112   1.082       .  S
C110        C111   1.383       .  A
C110        C184   1.473       .  S
C111        H113   1.082       .  S
N114        N115   1.323       .  A
N114        C118   1.345       .  A
N115        C116   1.346       .  A
C116        C609   1.384       .  A
C116        H611   1.082       .  S
C117        C608   1.384       .  A
C117        C610   1.383       .  A
C117        C141   1.473   1_556  S
C118        C609   1.383       .  A
C118        H612   1.082       .  S
H119        C608   1.082       .  S
H120        C610   1.082       .  S
N121        N122   1.322       .  A
N121        C125   1.347       .  A
N121       Cu129   2.077       .  S
N122        C123   1.343       .  A
N122       Cu128   2.065       .  S
C123        C124   1.379       .  A
C123        H126   1.082       .  S
C124        C125   1.383       .  A
C124        C194   1.464       .  S
C125        H127   1.082       .  S
Cu128       N131   2.065       .  S
Cu129       N139   2.077       .  S
Cu130       N132   2.079       .  S
Cu130       N138   2.080       .  S
N131        N132   1.322       .  A
N131        C135   1.343       .  A
N132        C133   1.347       .  A
C133        C134   1.386       .  A
C133        H136   1.082       .  S
C134        C135   1.382       .  A
C134        C226   1.473       .  S
C135        H137   1.082       .  S
N138        N139   1.324       .  A
N138        C142   1.347       .  A
N139        C140   1.345       .  A
C140        C141   1.382       .  A
C140        H143   1.082       .  S
C141        C142   1.384       .  A
C142        H144   1.082       .  S
C145        N146   1.355       .  A
C145        N150   1.362       .  A
C145        C465   1.477       .  S
N146        C147   1.354       .  A
C147        N148   1.356       .  A
C147        C450   1.482   1_655  S
N148        C149   1.357       .  A
C149        N150   1.362       .  A
C149        C201   1.465       .  S
C151        N152   1.360       .  A
C151        N156   1.363       .  A
C151        C409   1.492       .  S
N152        C153   1.354       .  A
C153        N154   1.353       .  A
C153        C170   1.463       .  S
N154        C155   1.357       .  A
C155        N156   1.363       .  A
C155        C478   1.481       .  S
N157        N158   1.322       .  A
N157        C161   1.345       .  A
N157       Cu165   2.076       .  S
N158        C159   1.345       .  A
N158       Cu164   2.072       .  S
C159        C160   1.384       .  A
C159        H162   1.082       .  S
C160        C161   1.384       .  A
C161        H163   1.082       .  S
Cu164       N167   2.072       .  S
Cu165       N175   2.076       .  S
Cu166       N168   2.069       .  S
Cu166       N174   2.071       .  S
N167        N168   1.322       .  A
N167        C171   1.345       .  A
N168        C169   1.343       .  A
C169        C170   1.380       .  A
C169        H172   1.082       .  S
C170        C171   1.383       .  A
C171        H173   1.082       .  S
N174        N175   1.322       .  A
N174        C178   1.344       .  A
N175        C176   1.347       .  A
C176        C177   1.383       .  A
C176        H179   1.082       .  S
C177        C178   1.381       .  A
C178        H180   1.082       .  S
N181        N182   1.322       .  A
N181        C185   1.347       .  A
N181       Cu189   2.074       .  S
N182        C183   1.343       .  A
N182       Cu188   2.071       .  S
C183        C184   1.383       .  A
C183        H186   1.082       .  S
C184        C185   1.385       .  A
C185        H187   1.082       .  S
Cu188       N191   2.071       .  S
Cu189       N199   2.074   1_455  S
Cu190       N192   2.074       .  S
Cu190       N198   2.074       .  S
N191        N192   1.322   1_455  A
N191        C195   1.345       .  A
N192        C193   1.345       .  A
C193        C194   1.381       .  A
C193        H196   1.082       .  S
C194        C195   1.382   1_655  A
C195        H197   1.082       .  S
N198        N199   1.322       .  A
N198        C202   1.347       .  A
N199        C200   1.343       .  A
C200        C201   1.382       .  A
C200        H203   1.082   1_655  S
C201        C202   1.382       .  A
C202        H204   1.082       .  S
C205        N206   1.359   1_545  A
C205        N210   1.362       .  A
C205        C394   1.491       .  S
N206        C207   1.354       .  A
C207        N208   1.354       .  A
C207        C437   1.479       .  S
N208        C209   1.356       .  A
C209        N210   1.360   1_565  A
C209        C267   1.463       .  S
C211        N212   1.359       .  A
C211        N216   1.362       .  A
C211        C381   1.491       .  S
N212        C213   1.354       .  A
C213        N214   1.356       .  A
C213        C314   1.465       .  S
N214        C215   1.359       .  A
C215        N216   1.360       .  A
C215        C366   1.487       .  S
C217        N218   1.365       .  A
C217        N222   1.360       .  A
C217        C353   1.495   1_655  S
N218        C219   1.360       .  A
C219        N220   1.356       .  A
C219        C243   1.471       .  S
N220        C221   1.357       .  A
C221        N222   1.357       .  A
C221        C338   1.487       .  S
N223        N224   1.320       .  A
N223        C227   1.346       .  A
N223       Cu231   2.070       .  S
N224        C225   1.343       .  A
N224       Cu230   2.067       .  S
C225        C226   1.384       .  A
C225        H228   1.082       .  S
C226        C227   1.385       .  A
C227        H229   1.082       .  S
Cu230       N233   2.067       .  S
Cu231       N241   2.071       .  S
Cu232       N234   2.096       .  S
Cu232       N240   2.096       .  S
N233        N234   1.324       .  A
N233        C237   1.343       .  A
N234        C235   1.349       .  A
C235        C236   1.385       .  A
C235        H238   1.082       .  S
C236        C237   1.379       .  A
C237        H239   1.082       .  S
N240        N241   1.323       .  A
N240        C244   1.351       .  A
N241        C242   1.343       .  A
C242        C243   1.380       .  A
C242        H245   1.082       .  S
C243        C244   1.387       .  A
C244        H246   1.082       .  S
N247        N248   1.322       .  A
N247        C251   1.353       .  A
N247       Cu255   2.091       .  S
N248        C249   1.337       .  A
N248       Cu254   2.061       .  S
C249        C250   1.380       .  A
C249        H252   1.082       .  S
C250        C251   1.389       .  A
C251        H253   1.082       .  S
Cu254       N257   2.061       .  S
Cu255       N265   2.092       .  S
Cu256       N258   2.060       .  S
Cu256       N264   2.063       .  S
N257        N258   1.319       .  A
N257        C261   1.342       .  A
N258        C259   1.345       .  A
C259        C260   1.384       .  A
C259        H262   1.082       .  S
C260        C261   1.383       .  A
C261        H263   1.082       .  S
N264        N265   1.325       .  A
N264        C268   1.341       .  A
N265        C266   1.349       .  A
C266        C267   1.385       .  A
C266        H269   1.082       .  S
C267        C268   1.377       .  A
C268        H270   1.082       .  S
C271        N272   1.359       .  A
C271        N276   1.357       .  A
C271        C422   1.481       .  S
N272        C273   1.359       .  A
C273        N274   1.359       .  A
C273        C297   1.468       .  S
N274        C275   1.360       .  A
C275        N276   1.358       .  A
C275        C325   1.479   1_565  S
N277        N278   1.319       .  A
N277        C281   1.349       .  A
N277       Cu285   2.079       .  S
N278        C279   1.341       .  A
N278       Cu284   2.054       .  S
C279        C280   1.381       .  A
C279        H282   1.082       .  S
C280        C281   1.388       .  A
C281        H283   1.082       .  S
Cu284       N287   2.055       .  S
Cu285       N295   2.082       .  S
Cu286       N288   2.088       .  S
Cu286       N294   2.090       .  S
N287        N288   1.321       .  A
N287        C291   1.337       .  A
N288        C289   1.352       .  A
C289        C290   1.389       .  A
C289        H292   1.082       .  S
C290        C291   1.379       .  A
C291        H293   1.082       .  S
N294        N295   1.326       .  A
N294        C298   1.347       .  A
N295        C296   1.346       .  A
C296        C297   1.381       .  A
C296        H299   1.082       .  S
C297        C298   1.382       .  A
C298        H300   1.082       .  S
N301        N302   1.320       .  A
N301        C305   1.345       .  A
N301       Cu309   2.075       .  S
N302        C303   1.344       .  A
N302       Cu308   2.064       .  S
C303        C304   1.383       .  A
C303        H306   1.082       .  S
C304        C305   1.386       .  A
C305        H307   1.082       .  S
Cu308       N311   2.065       .  S
Cu309       N319   2.075       .  S
Cu310       N312   2.084       .  S
Cu310       N318   2.084       .  S
N311        N312   1.323       .  A
N311        C315   1.343       .  A
N312        C313   1.347       .  A
C313        C314   1.384       .  A
C313        H316   1.082       .  S
C314        C315   1.379       .  A
C315        H317   1.082       .  S
N318        N319   1.323       .  A
N318        C322   1.347       .  A
N319        C320   1.345       .  A
C320        C321   1.381       .  A
C320        H323   1.082       .  S
C321        C322   1.384       .  A
C322        H324   1.082       .  S
C325        C326   1.413       .  A
C325        C330   1.405       .  A
C326        C327   1.404       .  A
C326        N331   1.438       .  S
C327        C328   1.400       .  A
C327        H332   1.084       .  S
C328        C329   1.408       .  A
C328        C333   1.477       .  S
C329        C330   1.407       .  A
C329        N334   1.438       .  S
C330        H335   1.084       .  S
N331        H351   1.046       .  S
N331        H352   1.045       .  S
C333        C336   1.400       .  A
C333        C340   1.407       .  A
N334        H349   1.046       .  S
N334        H350   1.044       .  S
C336        C337   1.405       .  A
C336        H341   1.084       .  S
C337        C338   1.414       .  A
C337        N342   1.432       .  S
C338        C339   1.407       .  A
C339        C340   1.404       .  A
C339        H343   1.083       .  S
C340        N344   1.438       .  S
N342        H345   1.046       .  S
N342        H346   1.045       .  S
N344        H347   1.046       .  S
N344        H348   1.044       .  S
C353        C354   1.416       .  A
C353        C358   1.411       .  A
C354        C355   1.407       .  A
C354        N359   1.437       .  S
C355        C356   1.403       .  A
C355        H360   1.084       .  S
C356        C357   1.408       .  A
C356        C361   1.488       .  S
C357        C358   1.407       .  A
C357        N362   1.438       .  S
C358        H363   1.083   1_455  S
N359        H379   1.046       .  S
N359        H380   1.045       .  S
C361        C364   1.403       .  A
C361        C368   1.410       .  A
N362        H377   1.046       .  S
N362        H378   1.045       .  S
C364        C365   1.401       .  A
C364        H369   1.084       .  S
C365        C366   1.418       .  A
C365        N370   1.432       .  S
C366        C367   1.406       .  A
C367        C368   1.406       .  A
C367        H371   1.084       .  S
C368        N372   1.438       .  S
N370        H373   1.051       .  S
N370        H374   1.039       .  S
N372        H375   1.045       .  S
N372        H376   1.046       .  S
C381        C382   1.418       .  A
C381        C386   1.410       .  A
C382        C383   1.406       .  A
C382        N387   1.438       .  S
C383        C384   1.401       .  A
C383        H388   1.084       .  S
C384        C385   1.406       .  A
C384        C389   1.479       .  S
C385        C386   1.404       .  A
C385        N390   1.438       .  S
C386        H391   1.083       .  S
N387        H407   1.046       .  S
N387        H408   1.045       .  S
C389        C392   1.402       .  A
C389        C396   1.405       .  A
N390        H405   1.046       .  S
N390        H406   1.046       .  S
C392        C393   1.410       .  A
C392        H397   1.084       .  S
C393        C394   1.418       .  A
C393        N398   1.437       .  S
C394        C395   1.409       .  A
C395        C396   1.399       .  A
C395        H399   1.083       .  S
C396        N400   1.439       .  S
N398        H401   1.046       .  S
N398        H402   1.046       .  S
N400        H403   1.045       .  S
N400        H404   1.046       .  S
C409        C410   1.417       .  A
C409        C414   1.408       .  A
C410        C411   1.410       .  A
C410        N415   1.437       .  S
C411        C412   1.404       .  A
C411        H416   1.084       .  S
C412        C413   1.407       .  A
C412        C417   1.485       .  S
C413        C414   1.402       .  A
C413        N418   1.438       .  S
C414        H419   1.083       .  S
N415        H435   1.045       .  S
N415        H436   1.046       .  S
C417        C420   1.403       .  A
C417        C424   1.409       .  A
N418        H433   1.046       .  S
N418        H434   1.045       .  S
C420        C421   1.405       .  A
C420        H425   1.084       .  S
C421        C422   1.413       .  A
C421        N426   1.438       .  S
C422        C423   1.405       .  A
C423        C424   1.407       .  A
C423        H427   1.084       .  S
C424        N428   1.437       .  S
N426        H429   1.045       .  S
N426        H430   1.046       .  S
N428        H431   1.046       .  S
N428        H432   1.046       .  S
C437        C438   1.413       .  A
C437        C442   1.405       .  A
C438        C439   1.404       .  A
C438        N443   1.438       .  S
C439        C440   1.401       .  A
C439        H444   1.084       .  S
C440        C441   1.408       .  A
C440        C445   1.476       .  S
C441        C442   1.402       .  A
C441        N446   1.438       .  S
C442        H447   1.083       .  S
N443        H463   1.045       .  S
N443        H464   1.046       .  S
C445        C448   1.400       .  A
C445        C452   1.408       .  A
N446        H461   1.046       .  S
N446        H462   1.046       .  S
C448        C449   1.404       .  A
C448        H453   1.084       .  S
C449        C450   1.416       .  A
C449        N454   1.438   1_455  S
C450        C451   1.406       .  A
C451        C452   1.403       .  A
C451        H455   1.083       .  S
C452        N456   1.438       .  S
N454        H457   1.046   1_655  S
N454        H458   1.046       .  S
N456        H459   1.046       .  S
N456        H460   1.046       .  S
C465        C466   1.413       .  A
C465        C470   1.403       .  A
C466        C467   1.402       .  A
C466        N471   1.438       .  S
C467        C468   1.400       .  A
C467        H472   1.084       .  S
C468        C469   1.412       .  A
C468        C473   1.481       .  S
C469        C470   1.408       .  A
C469        N474   1.438       .  S
C470        H475   1.084       .  S
N471        H491   1.046       .  S
N471        H492   1.045       .  S
C473        C476   1.399       .  A
C473        C480   1.411       .  A
N474        H489   1.046       .  S
N474        H490   1.046       .  S
C476        C477   1.403       .  A
C476        H481   1.084       .  S
C477        C478   1.415       .  A
C477        N482   1.438       .  S
C478        C479   1.403       .  A
C479        C480   1.407       .  A
C479        H483   1.084       .  S
C480        N484   1.438       .  S
N482        H485   1.046       .  S
N482        H486   1.045       .  S
N484        H487   1.046       .  S
N484        H488   1.046       .  S
N493        N494   1.319       .  A
N493        C497   1.353       .  A
N493       Cu501   2.084       .  S
N494        C495   1.336       .  A
N494       Cu500   2.052       .  S
C495        C496   1.380       .  A
C495        H498   1.082       .  S
C496        C497   1.391       .  A
C496        C742   1.475       .  S
C497        H499   1.082       .  S
Cu500       N503   2.053       .  S
Cu501       N511   2.088       .  S
Cu502       N504   2.079       .  S
Cu502       N510   2.083       .  S
N503        N504   1.319       .  A
N503        C507   1.336       .  A
N504        C505   1.352       .  A
C505        C506   1.390       .  A
C505        H508   1.082       .  S
C506        C507   1.380       .  A
C506        C782   1.473       .  S
C507        H509   1.082       .  S
N510        N511   1.327       .  A
N510        C514   1.346       .  A
N511        C512   1.346       .  A
C512        C513   1.383       .  A
C512        H515   1.082       .  S
C513        C514   1.382       .  A
C513        C537   1.473       .  S
C514        H516   1.082       .  S
N517        N518   1.321       .  A
N517        C521   1.348       .  A
N517       Cu525   2.080       .  S
N518        C519   1.342       .  A
N518       Cu524   2.061       .  S
C519        C520   1.382       .  A
C519        H522   1.082       .  S
C520        C521   1.385       .  A
C520        C772   1.472       .  S
C521        H523   1.082       .  S
Cu524       N527   2.060       .  S
Cu525       N535   2.081       .  S
Cu526       N528   2.075       .  S
Cu526       N534   2.075       .  S
N527        N528   1.321       .  A
N527        C531   1.342       .  A
N528        C529   1.346       .  A
C529        C530   1.385       .  A
C529        H532   1.082       .  S
C530        C531   1.381       .  A
C530        C752   1.469       .  S
C531        H533   1.082       .  S
N534        N535   1.323       .  A
N534        C538   1.345       .  A
N535        C536   1.346       .  A
N541        N542   1.323       .  A
N541        C545   1.349       .  A
N541       Cu549   2.087       .  S
N542        C543   1.342       .  A
N542       Cu548   2.063       .  S
C543        C544   1.378       .  A
C543        H546   1.082       .  S
C544        C545   1.385       .  A
C544        C669   1.467       .  S
C545        H547   1.082       .  S
Cu548       N551   2.064       .  S
Cu549       N559   2.088       .  S
Cu550       N552   2.069       .  S
Cu550       N558   2.069       .  S
N551        N552   1.321       .  A
N551        C555   1.344       .  A
N552        C553   1.344       .  A
C553        C554   1.385       .  A
C553        H556   1.082       .  S
C554        C555   1.383       .  A
C554        C796   1.473       .  S
C555        H557   1.082       .  S
N558        N559   1.323       .  A
N558        C562   1.345       .  A
N559        C560   1.346       .  A
C560        C561   1.386       .  A
C560        H563   1.082       .  S
C561        C562   1.381       .  A
C561        C585   1.473       .  S
C562        H564   1.082       .  S
N565        N566   1.323       .  A
N565        C569   1.347       .  A
N565       Cu573   2.089       .  S
N566        C567   1.344       .  A
N566       Cu572   2.067       .  S
C567        C568   1.379       .  A
C567        H570   1.082       .  S
C568        C569   1.385       .  A
C568        C813   1.468       .  S
C569        H571   1.082       .  S
Cu572       N575   2.068       .  S
Cu573       N583   2.089       .  S
Cu574       N576   2.065       .  S
Cu574       N582   2.066       .  S
N575        N576   1.320       .  A
N575        C579   1.344       .  A
N576        C577   1.344       .  A
C577        C578   1.384       .  A
C577        H580   1.082       .  S
C578        C579   1.384       .  A
C578        C652   1.472       .  S
C579        H581   1.082       .  S
N582        N583   1.323       .  A
C584        C585   1.387       .  A
C584        H587   1.082       .  S
C585        C586   1.380       .  A
C586        H588   1.082       .  S
N589        N590   1.322   1_655  A
N589        C593   1.347       .  A
N589       Cu597   2.081       .  S
N590        C591   1.345       .  A
N590       Cu596   2.070       .  S
C591        C592   1.381   1_455  A
C591        H594   1.082       .  S
C592        C593   1.384       .  A
C592        C728   1.467       .  S
C593        H595   1.082       .  S
Cu596       N599   2.070       .  S
Cu597       N607   2.081       .  S
Cu598       N600   2.076       .  S
Cu598       N606   2.077   1_455  S
N599        N600   1.322       .  A
N599        C603   1.343       .  A
N600        C601   1.347       .  A
C601        C602   1.385       .  A
C601        H604   1.082       .  S
C602        C603   1.383       .  A
C602        C676   1.473       .  S
C603        H605   1.082       .  S
N606        N607   1.323       .  A
N606        C610   1.345       .  A
N607        C608   1.346       .  A
C609        C633   1.473       .  S
N613        N614   1.322       .  A
N613        C617   1.347       .  A
N613       Cu621   2.077       .  S
N614        C615   1.343       .  A
N614       Cu620   2.065       .  S
C615        C616   1.379       .  A
C615        H618   1.082       .  S
C616        C617   1.383       .  A
C616        C686   1.464       .  S
C617        H619   1.082       .  S
Cu620       N623   2.065       .  S
Cu621       N631   2.077       .  S
Cu622       N624   2.079       .  S
Cu622       N630   2.080       .  S
N623        N624   1.322       .  A
N623        C627   1.343       .  A
N624        C625   1.347       .  A
C625        C626   1.386       .  A
C625        H628   1.082       .  S
C626        C627   1.382       .  A
C626        C718   1.473       .  S
C627        H629   1.082       .  S
N630        N631   1.324       .  A
N630        C634   1.347       .  A
N631        C632   1.345       .  A
C632        C633   1.382       .  A
C632        H635   1.082       .  S
C633        C634   1.384       .  A
C634        H636   1.082       .  S
C637        N638   1.355       .  A
C637        N642   1.362       .  A
C637        C957   1.477       .  S
N638        C639   1.354       .  A
C639        N640   1.356       .  A
C639        C942   1.482   1_655  S
N640        C641   1.357       .  A
C641        N642   1.362       .  A
C641        C693   1.465       .  S
C643        N644   1.360       .  A
C643        N648   1.363       .  A
C643        C901   1.492       .  S
N644        C645   1.354       .  A
C645        N646   1.353       .  A
C645        C662   1.463       .  S
N646        C647   1.357       .  A
C647        N648   1.363       .  A
C647        C970   1.481       .  S
N649        N650   1.322       .  A
N649        C653   1.345       .  A
N649       Cu657   2.076       .  S
N650        C651   1.345       .  A
N650       Cu656   2.072       .  S
C651        C652   1.384       .  A
C651        H654   1.082       .  S
C652        C653   1.384       .  A
C653        H655   1.082       .  S
Cu656       N659   2.072       .  S
Cu657       N667   2.076       .  S
Cu658       N660   2.069       .  S
Cu658       N666   2.071       .  S
N659        N660   1.322       .  A
N659        C663   1.345       .  A
N660        C661   1.343       .  A
C661        C662   1.380       .  A
C661        H664   1.082       .  S
C662        C663   1.383       .  A
C663        H665   1.082       .  S
N666        N667   1.322       .  A
N666        C670   1.344       .  A
N667        C668   1.347       .  A
C668        C669   1.383       .  A
C668        H671   1.082       .  S
C669        C670   1.381       .  A
C670        H672   1.082       .  S
N673        N674   1.322       .  A
N673        C677   1.347       .  A
N673       Cu681   2.074       .  S
N674        C675   1.343       .  A
N674       Cu680   2.071       .  S
C675        C676   1.383       .  A
C675        H678   1.082       .  S
C676        C677   1.385       .  A
C677        H679   1.082       .  S
Cu680       N683   2.071       .  S
Cu681       N691   2.074   1_455  S
Cu682       N684   2.074       .  S
Cu682       N690   2.074       .  S
N683        N684   1.322   1_455  A
N683        C687   1.345       .  A
N684        C685   1.345       .  A
C685        C686   1.381       .  A
C685        H688   1.082       .  S
C686        C687   1.382   1_655  A
C687        H689   1.082       .  S
N690        N691   1.322       .  A
N690        C694   1.347       .  A
N691        C692   1.343       .  A
C692        C693   1.382       .  A
C692        H695   1.082   1_655  S
C693        C694   1.382       .  A
C694        H696   1.082       .  S
C697        N698   1.359   1_545  A
C697        N702   1.362       .  A
C697        C886   1.491       .  S
N698        C699   1.354       .  A
C699        N700   1.354       .  A
C699        C929   1.479       .  S
N700        C701   1.356       .  A
C701        N702   1.360   1_565  A
C701        C759   1.463       .  S
C703        N704   1.359       .  A
C703        N708   1.362       .  A
C703        C873   1.491       .  S
N704        C705   1.354       .  A
C705        N706   1.356       .  A
C705        C806   1.465       .  S
N706        C707   1.359       .  A
C707        N708   1.360       .  A
C707        C858   1.487       .  S
C709        N710   1.365       .  A
C709        N714   1.360       .  A
C709        C845   1.495   1_655  S
N710        C711   1.360       .  A
C711        N712   1.356       .  A
C711        C735   1.471       .  S
N712        C713   1.357       .  A
C713        N714   1.357       .  A
C713        C830   1.487       .  S
N715        N716   1.320       .  A
N715        C719   1.346       .  A
N715       Cu723   2.070       .  S
N716        C717   1.343       .  A
N716       Cu722   2.067       .  S
C717        C718   1.384       .  A
C717        H720   1.082       .  S
C718        C719   1.385       .  A
C719        H721   1.082       .  S
Cu722       N725   2.067       .  S
Cu723       N733   2.071       .  S
Cu724       N726   2.096       .  S
Cu724       N732   2.096       .  S
N725        N726   1.324       .  A
N725        C729   1.343       .  A
N726        C727   1.349       .  A
C727        C728   1.385       .  A
C727        H730   1.082       .  S
C728        C729   1.379       .  A
C729        H731   1.082       .  S
N732        N733   1.323       .  A
N732        C736   1.351       .  A
N733        C734   1.343       .  A
C734        C735   1.380       .  A
C734        H737   1.082       .  S
C735        C736   1.387       .  A
C736        H738   1.082       .  S
N739        N740   1.322       .  A
N739        C743   1.353       .  A
N739       Cu747   2.091       .  S
N740        C741   1.337       .  A
N740       Cu746   2.061       .  S
C741        C742   1.380       .  A
C741        H744   1.082       .  S
C742        C743   1.389       .  A
C743        H745   1.082       .  S
Cu746       N749   2.061       .  S
Cu747       N757   2.092       .  S
Cu748       N750   2.060       .  S
Cu748       N756   2.063       .  S
N749        N750   1.319       .  A
N749        C753   1.342       .  A
N750        C751   1.345       .  A
C751        C752   1.384       .  A
C751        H754   1.082       .  S
C752        C753   1.383       .  A
C753        H755   1.082       .  S
N756        N757   1.325       .  A
N756        C760   1.341       .  A
N757        C758   1.349       .  A
C758        C759   1.385       .  A
C758        H761   1.082       .  S
C759        C760   1.377       .  A
C760        H762   1.082       .  S
C763        N764   1.359       .  A
C763        N768   1.357       .  A
C763        C914   1.481       .  S
N764        C765   1.359       .  A
C765        N766   1.359       .  A
C765        C789   1.468       .  S
N766        C767   1.360       .  A
C767        N768   1.358       .  A
C767        C817   1.479   1_565  S
N769        N770   1.319       .  A
N769        C773   1.349       .  A
N769       Cu777   2.079       .  S
N770        C771   1.341       .  A
N770       Cu776   2.054       .  S
C771        C772   1.381       .  A
C771        H774   1.082       .  S
C772        C773   1.388       .  A
C773        H775   1.082       .  S
Cu776       N779   2.055       .  S
Cu777       N787   2.082       .  S
Cu778       N780   2.088       .  S
Cu778       N786   2.090       .  S
N779        N780   1.321       .  A
N779        C783   1.337       .  A
N780        C781   1.352       .  A
C781        C782   1.389       .  A
C781        H784   1.082       .  S
C782        C783   1.379       .  A
C783        H785   1.082       .  S
N786        N787   1.326       .  A
N786        C790   1.347       .  A
N787        C788   1.346       .  A
C788        C789   1.381       .  A
C788        H791   1.082       .  S
C789        C790   1.382       .  A
C790        H792   1.082       .  S
N793        N794   1.320       .  A
N793        C797   1.345       .  A
N793       Cu801   2.075       .  S
N794        C795   1.344       .  A
N794       Cu800   2.064       .  S
C795        C796   1.383       .  A
C795        H798   1.082       .  S
C796        C797   1.386       .  A
C797        H799   1.082       .  S
Cu800       N803   2.065       .  S
Cu801       N811   2.075       .  S
Cu802       N804   2.084       .  S
Cu802       N810   2.084       .  S
N803        N804   1.323       .  A
N803        C807   1.343       .  A
N804        C805   1.347       .  A
C805        C806   1.384       .  A
C805        H808   1.082       .  S
C806        C807   1.379       .  A
C807        H809   1.082       .  S
N810        N811   1.323       .  A
N810        C814   1.347       .  A
N811        C812   1.345       .  A
C812        C813   1.381       .  A
C812        H815   1.082       .  S
C813        C814   1.384       .  A
C814        H816   1.082       .  S
C817        C818   1.413       .  A
C817        C822   1.405       .  A
C818        C819   1.404       .  A
C818        N823   1.438       .  S
C819        C820   1.400       .  A
C819        H824   1.084       .  S
C820        C821   1.408       .  A
C820        C825   1.477       .  S
C821        C822   1.407       .  A
C821        N826   1.438       .  S
C822        H827   1.084       .  S
N823        H843   1.046       .  S
N823        H844   1.045       .  S
C825        C828   1.400       .  A
C825        C832   1.407       .  A
N826        H841   1.046       .  S
N826        H842   1.044       .  S
C828        C829   1.405       .  A
C828        H833   1.084       .  S
C829        C830   1.414       .  A
C829        N834   1.432       .  S
C830        C831   1.407       .  A
C831        C832   1.404       .  A
C831        H835   1.083       .  S
C832        N836   1.438       .  S
N834        H837   1.046       .  S
N834        H838   1.045       .  S
N836        H839   1.046       .  S
N836        H840   1.044       .  S
C845        C846   1.416       .  A
C845        C850   1.411       .  A
C846        C847   1.407       .  A
C846        N851   1.437       .  S
C847        C848   1.403       .  A
C847        H852   1.084       .  S
C848        C849   1.408       .  A
C848        C853   1.488       .  S
C849        C850   1.407       .  A
C849        N854   1.438       .  S
C850        H855   1.083   1_455  S
N851        H871   1.046       .  S
N851        H872   1.045       .  S
C853        C856   1.403       .  A
C853        C860   1.410       .  A
N854        H869   1.046       .  S
N854        H870   1.045       .  S
C856        C857   1.401       .  A
C856        H861   1.084       .  S
C857        C858   1.418       .  A
C857        N862   1.432       .  S
C858        C859   1.406       .  A
C859        C860   1.406       .  A
C859        H863   1.084       .  S
C860        N864   1.438       .  S
N862        H865   1.051       .  S
N862        H866   1.039       .  S
N864        H867   1.045       .  S
N864        H868   1.046       .  S
C873        C874   1.418       .  A
C873        C878   1.410       .  A
C874        C875   1.406       .  A
C874        N879   1.438       .  S
C875        C876   1.401       .  A
C875        H880   1.084       .  S
C876        C877   1.406       .  A
C876        C881   1.479       .  S
C877        C878   1.404       .  A
C877        N882   1.438       .  S
C878        H883   1.083       .  S
N879        H899   1.046       .  S
N879        H900   1.045       .  S
C881        C884   1.402       .  A
C881        C888   1.405       .  A
N882        H897   1.046       .  S
N882        H898   1.046       .  S
C884        C885   1.410       .  A
C884        H889   1.084       .  S
C885        C886   1.418       .  A
C885        N890   1.437       .  S
C886        C887   1.409       .  A
C887        C888   1.399       .  A
C887        H891   1.083       .  S
C888        N892   1.439       .  S
N890        H893   1.046       .  S
N890        H894   1.046       .  S
N892        H895   1.045       .  S
N892        H896   1.046       .  S
C901        C902   1.417       .  A
C901        C906   1.408       .  A
C902        C903   1.410       .  A
C902        N907   1.437       .  S
C903        C904   1.404       .  A
C903        H908   1.084       .  S
C904        C905   1.407       .  A
C904        C909   1.485       .  S
C905        C906   1.402       .  A
C905        N910   1.438       .  S
C906        H911   1.083       .  S
N907        H927   1.045       .  S
N907        H928   1.046       .  S
C909        C912   1.403       .  A
C909        C916   1.409       .  A
N910        H925   1.046       .  S
N910        H926   1.045       .  S
C912        C913   1.405       .  A
C912        H917   1.084       .  S
C913        C914   1.413       .  A
C913        N918   1.438       .  S
C914        C915   1.405       .  A
C915        C916   1.407       .  A
C915        H919   1.084       .  S
C916        N920   1.437       .  S
N918        H921   1.045       .  S
N918        H922   1.046       .  S
N920        H923   1.046       .  S
N920        H924   1.046       .  S
C929        C930   1.413       .  A
C929        C934   1.405       .  A
C930        C931   1.404       .  A
C930        N935   1.438       .  S
C931        C932   1.401       .  A
C931        H936   1.084       .  S
C932        C933   1.408       .  A
C932        C937   1.476       .  S
C933        C934   1.402       .  A
C933        N938   1.438       .  S
C934        H939   1.083       .  S
N935        H955   1.045       .  S
N935        H956   1.046       .  S
C937        C940   1.400       .  A
C937        C944   1.408       .  A
N938        H953   1.046       .  S
N938        H954   1.046       .  S
C940        C941   1.404       .  A
C940        H945   1.084       .  S
C941        C942   1.416       .  A
C941        N946   1.438   1_455  S
C942        C943   1.406       .  A
C943        C944   1.403       .  A
C943        H947   1.083       .  S
C944        N948   1.438       .  S
N946        H949   1.046   1_655  S
N946        H950   1.046       .  S
N948        H951   1.046       .  S
N948        H952   1.046       .  S
C957        C958   1.413       .  A
C957        C962   1.403       .  A
C958        C959   1.402       .  A
C958        N963   1.438       .  S
C959        C960   1.400       .  A
C959        H964   1.084       .  S
C960        C961   1.412       .  A
C960        C965   1.481       .  S
C961        C962   1.408       .  A
C961        N966   1.438       .  S
C962        H967   1.084       .  S
N963        H983   1.046       .  S
N963        H984   1.045       .  S
C965        C968   1.399       .  A
C965        C972   1.411       .  A
N966        H981   1.046       .  S
N966        H982   1.046       .  S
C968        C969   1.403       .  A
C968        H973   1.084       .  S
C969        C970   1.415       .  A
C969        N974   1.438       .  S
C970        C971   1.403       .  A
C971        C972   1.407       .  A
C971        H975   1.084       .  S
C972        N976   1.438       .  S
N974        H977   1.046       .  S
N974        H978   1.045       .  S
N976        H979   1.046       .  S
N976        H980   1.046       .  S
