geometry optimzed in LAMMPS
_audit_creation_date              2020-12-01 
_audit_creation_method            'lammps2cif' 
_symmetry_space_group_name_H-M    'P1' 
_symmetry_Int_Tables_number       1 
_symmetry_cell_setting            triclinic 
loop_ 
_symmetry_equiv_pos_as_xyz 
  x,y,z 
_cell_length_a                    44.86717463 
_cell_length_b                    44.87318781336015 
_cell_length_c                    18.941736661106596 
_cell_angle_alpha                 89.97358415989545 
_cell_angle_beta                  90.02273402485712 
_cell_angle_gamma                 120.04961479232499 
loop_ 
_atom_site_label 
_atom_site_type_symbol 
_atom_site_fract_x 
_atom_site_fract_y 
_atom_site_fract_z 
_atom_site_charge 
C1          C  0.33332249  0.16683352  0.14364001     0.32400
C2          C  0.33327613  0.16684286  0.00038713     0.32400
C3          C  0.35006811  0.14781691  0.10859110    -0.03800
C4          C  0.29751103  0.15005892  0.10864731    -0.04600
C5          C  0.35235232  0.20263370  0.10859882    -0.04500
C6          C  0.34991832  0.14796720  0.03506799    -0.03800
C7          C  0.29775335  0.15018635  0.03512393    -0.04600
C8          C  0.35218657  0.20236971  0.03507638    -0.04500
C9          C  0.36563597  0.13011375  0.01245114    -0.29900
N10         N  0.37535091  0.11911037  0.06998298     0.16600
C11         C  0.36607195  0.12964587  0.12918370    -0.29900
H12         H  0.37059822  0.12449225  0.18275877     0.18600
C13         C  0.26413736  0.13448508  0.01258181    -0.28800
N14         N  0.24345453  0.12480482  0.07016392     0.15400
C15         C  0.26333222  0.13408871  0.12931819    -0.28800
C16         C  0.37000064  0.23597866  0.01247777    -0.29100
N17         N  0.38099218  0.25668088  0.07002427     0.15900
H18         H  0.37464200  0.24478258  0.95823850     0.18500
C19         C  0.37048927  0.23682154  0.12921226    -0.29100
H20         H  0.37562344  0.24648133  0.18279361     0.18500
H21         H  0.25369221  0.12960226  0.18291549     0.18500
H22         H  0.36972252  0.12543382  0.95820555     0.18600
H23         H  0.25531703  0.13040055  0.95835720     0.18500
C24         C  0.33328947  0.16686548  0.50038717     0.32400
C25         C  0.33335275  0.16687278  0.64363999     0.32400
C26         C  0.35218186  0.15023999  0.53506514    -0.03800
C27         C  0.34995871  0.20239562  0.53506143    -0.04600
C28         C  0.29776998  0.14796696  0.53514180    -0.04500
C29         C  0.35235896  0.15011671  0.60858803    -0.03800
C30         C  0.35011446  0.20266784  0.60858445    -0.04600
C31         C  0.29753622  0.14782958  0.60866477    -0.04500
C32         C  0.37051885  0.13410053  0.62917729    -0.29900
N33         N  0.38102195  0.12478895  0.56997463     0.16600
C34         C  0.37000898  0.13449518  0.51244480    -0.29900
H35         H  0.37465759  0.13037703  0.45819841     0.18600
C36         C  0.36608814  0.23685201  0.62918421    -0.28800
N37         N  0.37534576  0.25670160  0.56998847     0.15400
C38         C  0.36564589  0.23599643  0.51244996    -0.28800
C39         C  0.26335493  0.12968368  0.62935278    -0.29100
N40         N  0.24346770  0.11914675  0.57020827     0.15900
H41         H  0.25371845  0.12456178  0.68295480     0.18500
C42         C  0.26414666  0.13012580  0.51261606    -0.29100
H43         H  0.25531741  0.12545283  0.45839578     0.18500
H44         H  0.36970508  0.24479120  0.45820730     0.18500
H45         H  0.37568037  0.12958122  0.68275148     0.18600
H46         H  0.37059248  0.24651434  0.68276175     0.18500
C47         C  0.16649207  0.33366301  0.99961284     0.32400
C48         C  0.16644572  0.33367235  0.85635998     0.32400
C49         C  0.14984980  0.35253860  0.96493195    -0.03800
C50         C  0.20201486  0.35031955  0.96487605    -0.04600
C51         C  0.14758168  0.29813615  0.96492361    -0.04500
C52         C  0.14970002  0.35268890  0.89140884    -0.03800
C53         C  0.20225716  0.35044699  0.89135269    -0.04600
C54         C  0.14741591  0.29787218  0.89140119    -0.04500
C55         C  0.13369610  0.37085986  0.87081621    -0.29900
N56         N  0.12441712  0.38139535  0.93001685     0.16600
C57         C  0.13413207  0.37039198  0.98754877    -0.29900
H58         H  0.13004551  0.37507190  0.04179427     0.18600
C59         C  0.23643595  0.36641717  0.87068168    -0.28800
N60         N  0.25631363  0.37570106  0.92983600     0.15400
C61         C  0.23563085  0.36602083  0.98741814    -0.28800
C62         C  0.12927889  0.26368434  0.87078763    -0.29100
N63         N  0.11877600  0.24382501  0.92997573     0.15900
H64         H  0.12414462  0.25402461  0.81720639     0.18500
C65         C  0.12976756  0.26452722  0.98752216    -0.29100
H66         H  0.12512612  0.25572329  0.04176152     0.18500
H67         H  0.24445126  0.37010537  0.04164272     0.18500
H68         H  0.12916983  0.37601346  0.81724105     0.18600
H69         H  0.24607594  0.37090359  0.81708450     0.18500
C70         C  0.16641541  0.33363295  0.35635998     0.32400
C71         C  0.16647867  0.33364032  0.49961283     0.32400
C72         C  0.14740923  0.35038907  0.39141180    -0.03800
C73         C  0.14965365  0.29783790  0.39141560    -0.04600
C74         C  0.20223194  0.35267616  0.39133529    -0.04500
C75         C  0.14758633  0.35026583  0.46493469    -0.03800
C76         C  0.14980944  0.29811016  0.46493862    -0.04600
C77         C  0.20199816  0.35253881  0.46485827    -0.04500
C78         C  0.12975928  0.36601073  0.48755496    -0.29900
N79         N  0.11874631  0.37571692  0.43002510     0.16600
C80         C  0.12924938  0.36640529  0.37082248    -0.29900
H81         H  0.12408788  0.37092461  0.31724827     0.18600
C82         C  0.13412232  0.26450937  0.48755009    -0.28800
N83         N  0.12442239  0.24380416  0.43001167     0.15400
C84         C  0.13367995  0.26365372  0.37081588    -0.28800
C85         C  0.23562147  0.37037994  0.48738407    -0.29100
N86         N  0.25630047  0.38135897  0.42979192     0.15900
H87         H  0.24445066  0.37505292  0.54160441     0.18500
C88         C  0.23641326  0.37082208  0.37064734    -0.29100
H89         H  0.24604979  0.37594406  0.31704541     0.18500
H90         H  0.12917555  0.25399137  0.31723839     0.18500
H91         H  0.12511070  0.37012894  0.54180132     0.18600
H92         H  0.13006312  0.25571460  0.54179280     0.18500
O93         O  0.04561217  0.48700803  0.04836206    -0.86000
C94         C  0.05212464  0.05280506  0.89269649     0.90100
Mg95       Mg  0.00856890  0.43285822  0.04558691     1.58100
O96         O  0.01316273  0.05925341  0.04826071    -0.85700
O97         O  0.05909482  0.03138420  0.11697292    -0.73000
C98         C  0.35950473  0.42340590  0.95913467     0.95100
O99         O  0.03102446  0.47219768  0.88317888    -0.72800
O100        O  0.37512635  0.40644215  0.95262128    -0.80300
Mg101      Mg  0.07602202  0.00902095  0.95459421     1.58000
C102        C  0.42309952  0.06375153  0.04052686     0.95000
O103        O  0.12546588  0.04638353  0.01697878    -0.78600
H104        H  0.01469232  0.06666384  0.15257955    -0.03900
C105        C  0.44740278  0.49992583  0.89254210     0.90000
O106        O  0.47172930  0.44099700  0.11687584    -0.73100
O107        O  0.05892356  0.04603270  0.95180570    -0.85900
O108        O  0.45382819  0.07970445  0.01666850    -0.78700
C109        C  0.06349869  0.14062938  0.95935124     0.95200
C110        C  0.14026336  0.07709990  0.04086512     0.95000
Mg111      Mg  0.42374604  0.49148480  0.04540564     1.58000
O112        O  0.37430216  0.45412228  0.98302098    -0.78600
O113        O  0.46874373  0.02830815  0.11682119    -0.72900
O114        O  0.07943578  0.12586480  0.98326644    -0.78700
O115        O  0.09365298  0.46936366  0.95294082    -0.80400
O116        O  0.42033231  0.37464100  0.01673341    -0.78700
C117        C  0.49956446  0.05241574  0.10733725     0.89400
O118        O  0.44084443  0.45447300  0.04819413    -0.85900
O119        O  0.45415591  0.01349774  0.95163771    -0.86000
O120        O  0.44067334  0.46912156  0.88302688    -0.73000
Mg121      Mg  0.06731387  0.07639795  0.04560066     1.58000
O122        O  0.03088971  0.12496862  0.95275797    -0.80400
H123        H  0.05146405  0.48543860  0.15269755    -0.04100
O124        O  0.48660540  0.44125242  0.95173926    -0.85700
H125        H  0.48507589  0.43384201  0.84742046    -0.04000
H126        H  0.43337758  0.44856232  0.15250477    -0.04100
C127        C  0.00020372  0.44809014  0.89266279     0.89400
C128        C  0.05236527  0.00057989  0.10745769     0.90000
C129        C  0.44764341  0.44770078  0.10730342     0.90100
H130        H  0.44830391  0.01506712  0.84730222    -0.04100
O131        O  0.02803878  0.05950889  0.88312417    -0.73100
Mg132      Mg  0.43245424  0.42410782  0.95439914     1.58000
H133        H  0.06639052  0.05194366  0.84749510    -0.04100
C134        C  0.07666866  0.43675430  0.95947304     0.95000
O135        O  0.46887844  0.37553727  0.04724182    -0.80400
C136        C  0.43626945  0.35987648  0.04064863     0.95100
O137        O  0.12464176  0.09406367  0.04737849    -0.80300
Mg138      Mg  0.49119926  0.06764758  0.95441297     1.58200
O139        O  0.04593997  0.42080131  0.98333132    -0.78700
O140        O  0.40611514  0.03114217  0.04705901    -0.80400
O141        O  0.48665953  0.04600136  0.45168547    -0.86000
C142        C  0.05236708  0.05241416  0.60748438     0.90100
Mg143      Mg  0.43250155  0.00896051  0.45430217     1.58100
O144        O  0.05892726  0.01356237  0.45187429    -0.85700
O145        O  0.03108914  0.05952206  0.38318334    -0.73000
C146        C  0.42302153  0.35987482  0.54054966     0.95100
O147        O  0.47173692  0.03130963  0.61682257    -0.72800
O148        O  0.40604240  0.37548241  0.54703264    -0.80300
Mg149      Mg  0.00861426  0.07634608  0.54554202     1.58000
C150        C  0.06342354  0.42350543  0.45947309     0.95000
O151        O  0.04601452  0.12581824  0.48328072    -0.78600
H152        H  0.06642000  0.01516295  0.34757568    -0.03900
C153        C  0.49949460  0.44771794  0.60737586     0.90000
O154        O  0.44069479  0.47217431  0.38296940    -0.73100
O155        O  0.04563146  0.05924996  0.54837701    -0.85900
O156        O  0.07936731  0.45421521  0.48340777    -0.78700
C157        C  0.14025805  0.06384443  0.54096433     0.95200
C158        C  0.07674666  0.14063096  0.45945035     0.95000
Mg159      Mg  0.49115396  0.42415975  0.45445791     1.58000
O160        O  0.45375365  0.37468754  0.51671911    -0.78600
O161        O  0.02803119  0.46919626  0.38317741    -0.72900
O162        O  0.12549884  0.07978998  0.51706951    -0.78700
O163        O  0.46895345  0.09397289  0.54714883    -0.80400
O164        O  0.37426935  0.42071575  0.48293021    -0.78700
C165        C  0.05213510  0.50000636  0.39276171     0.89400
O166        O  0.45413683  0.44125585  0.45162307    -0.85900
O167        O  0.01310857  0.45450439  0.54831446    -0.86000
O168        O  0.46867906  0.44098382  0.61681675    -0.73000
Mg169      Mg  0.07606304  0.06770209  0.45464643     1.58000
O170        O  0.12459476  0.03123626  0.54749810    -0.80400
H171        H  0.48516268  0.05191254  0.34735514    -0.04100
O172        O  0.44084102  0.48694349  0.54812561    -0.85700
H173        H  0.43334826  0.48534285  0.65242424    -0.04000
H174        H  0.44829676  0.43385816  0.34728707    -0.04100
C175        C  0.44763305  0.00049953  0.60723816     0.89400
C176        C  0.00027355  0.05278776  0.39262416     0.90000
C177        C  0.44740115  0.44809158  0.39251569     0.90100
H178        H  0.01460543  0.44859306  0.65264467    -0.04100
O179        O  0.05907337  0.02833138  0.61703067    -0.73100
Mg180      Mg  0.42370519  0.43280374  0.54535352     1.58000
H181        H  0.05147142  0.06664756  0.65271306    -0.04100
C182        C  0.43634467  0.07700041  0.54052668     0.95000
O183        O  0.37517349  0.46926951  0.45250171    -0.80400
C184        C  0.35951016  0.43666134  0.45903546     0.95100
O185        O  0.09372580  0.12502338  0.45296749    -0.80300
Mg186      Mg  0.06726659  0.49154525  0.54569772     1.58200
O187        O  0.42040087  0.04629063  0.51659197    -0.78700
O188        O  0.03081475  0.40653291  0.45285099    -0.80400
C189        C  0.09327845  0.17675788  0.44177714    -0.10900
C190        C  0.10758155  0.20762579  0.43313234    -0.12400
C191        C  0.32337350  0.41708374  0.44138807    -0.10900
C192        C  0.29249207  0.40059044  0.43281493    -0.12400
C193        C  0.09950319  0.39263317  0.43316558    -0.10900
C194        C  0.08300361  0.40698191  0.44182536    -0.12400
C195        C  0.08308353  0.17676351  0.94171163    -0.10900
C196        C  0.09956499  0.20763849  0.93308246    -0.12400
C197        C  0.29249836  0.39255315  0.93287666    -0.10900
C198        C  0.32337373  0.40686746  0.94146559    -0.12400
C199        C  0.10752768  0.40066397  0.93315359    -0.10900
C200        C  0.09319554  0.41717913  0.94181338    -0.12400
C201        C  0.16643445  0.33367305  0.77885822    -0.16100
C202        C  0.16645435  0.33366626  0.71521358     0.07900
C203        C  0.16648822  0.33365445  0.64071372     0.09800
C204        C  0.16650282  0.33364556  0.57709404    -0.17000
C205        C  0.16650423  0.33365453  0.07709403    -0.16100
C206        C  0.16647555  0.33364473  0.14071371     0.06900
C207        C  0.16642605  0.33363450  0.21521357     0.09800
C208        C  0.16639922  0.33363023  0.27885821    -0.17000
C209        C  0.41676466  0.09352398  0.55817441    -0.10900
C210        C  0.40026508  0.10787273  0.56683416    -0.12400
C211        C  0.39218659  0.29287998  0.56686785    -0.10900
C212        C  0.40648975  0.32374790  0.55822301    -0.12400
C213        C  0.17639469  0.08342211  0.55861187    -0.10900
C214        C  0.20727609  0.09991538  0.56718522    -0.12400
C215        C  0.39224047  0.09984186  0.06684631    -0.10900
C216        C  0.40657271  0.08332677  0.05818660    -0.12400
C217        C  0.41668466  0.32374238  0.05828839    -0.10900
C218        C  0.40020319  0.29286740  0.06691753    -0.12400
C219        C  0.17639439  0.09363832  0.05853420    -0.10900
C220        C  0.20726978  0.10795265  0.06712315    -0.12400
C221        C  0.33336898  0.16687549  0.72114175    -0.16100
C222        C  0.33334224  0.16687135  0.78478639     0.07900
C223        C  0.33329276  0.16686117  0.85928624     0.09800
C224        C  0.33326403  0.16685135  0.92290592    -0.17000
C225        C  0.33326525  0.16686027  0.42290597    -0.16100
C226        C  0.33327984  0.16685132  0.35928629     0.07900
C227        C  0.33331389  0.16683958  0.28478643     0.09800
C228        C  0.33333383  0.16683286  0.22114179    -0.17000
C229        C  0.33332247  0.66683353  0.14364000     0.32400
C230        C  0.33327614  0.66684288  0.00038714     0.32400
C231        C  0.35006813  0.64781695  0.10859113    -0.03800
C232        C  0.29751101  0.65005894  0.10864730    -0.04600
C233        C  0.35235229  0.70263371  0.10859881    -0.04500
C234        C  0.34991839  0.64796726  0.03506801    -0.03800
C235        C  0.29775333  0.65018636  0.03512392    -0.04600
C236        C  0.35218655  0.70236973  0.03507637    -0.04500
C237        C  0.36563607  0.63011382  0.01245128    -0.29900
N238        N  0.37535094  0.61911040  0.06998313     0.16600
C239        C  0.36607194  0.62964589  0.12918382    -0.29900
H240        H  0.37059815  0.62449227  0.18275891     0.18600
C241        C  0.26413733  0.63448505  0.01258181    -0.28800
N242        N  0.24345449  0.62480471  0.07016392     0.15400
C243        C  0.26333219  0.63408869  0.12931818    -0.28800
C244        C  0.37000061  0.73597866  0.01247776    -0.29100
N245        N  0.38099216  0.75668089  0.07002426     0.15900
H246        H  0.37464196  0.74478255  0.95823848     0.18500
C247        C  0.37048924  0.73682155  0.12921225    -0.29100
H248        H  0.37562340  0.74648131  0.18279362     0.18500
H249        H  0.25369217  0.62960226  0.18291547     0.18500
H250        H  0.36972266  0.62543387  0.95820568     0.18600
H251        H  0.25531698  0.63040054  0.95835722     0.18500
C252        C  0.33328948  0.66686552  0.50038717     0.32400
C253        C  0.33335276  0.66687282  0.64363999     0.32400
C254        C  0.35218188  0.65024004  0.53506514    -0.03800
C255        C  0.34995870  0.70239566  0.53506144    -0.04600
C256        C  0.29776999  0.64796697  0.53514180    -0.04500
C257        C  0.35235897  0.65011675  0.60858803    -0.03800
C258        C  0.35011445  0.70266788  0.60858445    -0.04600
C259        C  0.29753623  0.64782960  0.60866476    -0.04500
C260        C  0.37051880  0.63410051  0.62917729    -0.29900
N261        N  0.38102185  0.62478887  0.56997463     0.16600
C262        C  0.37000894  0.63449516  0.51244480    -0.29900
H263        H  0.37465759  0.63037704  0.45819842     0.18600
C264        C  0.36608813  0.73685205  0.62918421    -0.28800
N265        N  0.37534579  0.75670163  0.56998847     0.15400
C266        C  0.36564588  0.73599646  0.51244997    -0.28800
C267        C  0.26335494  0.62968372  0.62935276    -0.29100
N268        N  0.24346771  0.61914680  0.57020827     0.15900
H269        H  0.25371845  0.62456181  0.68295479     0.18500
C270        C  0.26414667  0.63012583  0.51261605    -0.29100
H271        H  0.25531745  0.62545289  0.45839576     0.18500
H272        H  0.36970510  0.74479124  0.45820730     0.18500
H273        H  0.37568037  0.62958124  0.68275147     0.18600
H274        H  0.37059249  0.74651438  0.68276175     0.18500
C275        C  0.16649203  0.83366296  0.99961285     0.32400
C276        C  0.16644566  0.83367230  0.85635999     0.32400
C277        C  0.14984980  0.85253861  0.96493194    -0.03800
C278        C  0.20201482  0.85031939  0.96487606    -0.04600
C279        C  0.14758158  0.79813611  0.96492364    -0.04500
C280        C  0.14970001  0.85268889  0.89140884    -0.03800
C281        C  0.20225711  0.85044683  0.89135271    -0.04600
C282        C  0.14741581  0.79787212  0.89140119    -0.04500
C283        C  0.13369610  0.87085987  0.87081621    -0.29900
N284        N  0.12441713  0.88139537  0.93001685     0.16600
C285        C  0.13413205  0.87039198  0.98754876    -0.29900
H286        H  0.13004543  0.87507186  0.04179426     0.18600
C287        C  0.23643590  0.86641706  0.87068168    -0.28800
N288        N  0.25631362  0.87570100  0.92983597     0.15400
C289        C  0.23563083  0.86602067  0.98741812    -0.28800
C290        C  0.12927882  0.76368428  0.87078763    -0.29100
N291        N  0.11877594  0.74382497  0.92997575     0.15900
H292        H  0.12414455  0.75402453  0.81720641     0.18500
C293        C  0.12976749  0.76452717  0.98752219    -0.29100
H294        H  0.12512606  0.75572323  0.04176153     0.18500
H295        H  0.24445121  0.87010518  0.04164270     0.18500
H296        H  0.12916981  0.87601346  0.81724106     0.18600
H297        H  0.24607585  0.87090350  0.81708447     0.18500
C298        C  0.16641543  0.83363297  0.35635997     0.32400
C299        C  0.16647867  0.83364034  0.49961283     0.32400
C300        C  0.14740918  0.85038903  0.39141180    -0.03800
C301        C  0.14965375  0.79783793  0.39141560    -0.04600
C302        C  0.20223195  0.85267622  0.39133529    -0.04500
C303        C  0.14758628  0.85026580  0.46493469    -0.03800
C304        C  0.14980948  0.79811019  0.46493862    -0.04600
C305        C  0.20199816  0.85253886  0.46485827    -0.04500
C306        C  0.12975919  0.86601065  0.48755497    -0.29900
N307        N  0.11874623  0.87571686  0.43002510     0.16600
C308        C  0.12924929  0.86640521  0.37082247    -0.29900
H309        H  0.12408776  0.87092451  0.31724829     0.18600
C310        C  0.13412233  0.76450940  0.48755009    -0.28800
N311        N  0.12442242  0.74380419  0.43001167     0.15400
C312        C  0.13368008  0.76365376  0.37081588    -0.28800
C313        C  0.23562146  0.87037998  0.48738407    -0.29100
N314        N  0.25630046  0.88135902  0.42979192     0.15900
H315        H  0.24445065  0.87505294  0.54160442     0.18500
C316        C  0.23641326  0.87082213  0.37064734    -0.29100
H317        H  0.24604979  0.87594409  0.31704541     0.18500
H318        H  0.12917571  0.75399141  0.31723838     0.18500
H319        H  0.12511057  0.87012884  0.54180130     0.18600
H320        H  0.13006311  0.75571464  0.54179281     0.18500
O321        O  0.04561216  0.98700802  0.04836207    -0.86000
C322        C  0.05212462  0.55280504  0.89269649     0.90100
Mg323      Mg  0.00856888  0.93285821  0.04558692     1.58100
O324        O  0.01316274  0.55925343  0.04826075    -0.85700
O325        O  0.05909478  0.53138420  0.11697296    -0.73000
C326        C  0.35950477  0.92340593  0.95913467     0.95100
O327        O  0.03102440  0.97219756  0.88317892    -0.72800
O328        O  0.37512640  0.90644218  0.95262129    -0.80300
Mg329      Mg  0.07602202  0.50902102  0.95459420     1.58000
C330        C  0.42309954  0.56375157  0.04052686     0.95000
O331        O  0.12546584  0.54638356  0.01697878    -0.78600
H332        H  0.01469229  0.56666390  0.15257957    -0.03900
C333        C  0.44740279  0.99992586  0.89254209     0.90000
O334        O  0.47172940  0.94099705  0.11687581    -0.73100
O335        O  0.05892357  0.54603275  0.95180573    -0.85900
O336        O  0.45382821  0.57970447  0.01666848    -0.78700
C337        C  0.06349867  0.64062937  0.95935123     0.95200
C338        C  0.14026333  0.57709992  0.04086512     0.95000
Mg339      Mg  0.42374609  0.99148480  0.04540564     1.58000
O340        O  0.37430222  0.95412230  0.98302097    -0.78600
O341        O  0.46874374  0.52830818  0.11682116    -0.72900
O342        O  0.07943576  0.62586480  0.98326644    -0.78700
O343        O  0.09365303  0.96936363  0.95294088    -0.80400
O344        O  0.42033230  0.87464102  0.01673342    -0.78700
C345        C  0.49956448  0.55241573  0.10733724     0.89400
O346        O  0.44084448  0.95447301  0.04819415    -0.85900
O347        O  0.45415585  0.51349773  0.95163770    -0.86000
O348        O  0.44067333  0.96912158  0.88302684    -0.73000
Mg349      Mg  0.06731386  0.57639797  0.04560070     1.58000
O350        O  0.03088969  0.62496860  0.95275794    -0.80400
H351        H  0.05146413  0.98543861  0.15269750    -0.04100
O352        O  0.48660534  0.94125231  0.95173927    -0.85700
H353        H  0.48507576  0.93384200  0.84742045    -0.04000
H354        H  0.43337769  0.94856233  0.15250485    -0.04100
C355        C  0.00020363  0.94809005  0.89266277     0.89400
C356        C  0.05236525  0.50057991  0.10745768     0.90000
C357        C  0.44764349  0.94770080  0.10730343     0.90100
H358        H  0.44830391  0.51506708  0.84730218    -0.04100
O359        O  0.02803870  0.55950876  0.88312413    -0.73100
Mg360      Mg  0.43245423  0.92410782  0.95439915     1.58000
H361        H  0.06639052  0.55194366  0.84749512    -0.04100
C362        C  0.07666866  0.93675428  0.95947304     0.95000
O363        O  0.46887843  0.87553728  0.04724184    -0.80400
C364        C  0.43626944  0.85987650  0.04064865     0.95100
O365        O  0.12464174  0.59406371  0.04737849    -0.80300
Mg366      Mg  0.49119923  0.56764756  0.95441296     1.58200
O367        O  0.04593997  0.92080133  0.98333130    -0.78700
O368        O  0.40611512  0.53114221  0.04705899    -0.80400
O369        O  0.48665953  0.54600140  0.45168547    -0.86000
C370        C  0.05236707  0.55241418  0.60748438     0.90100
Mg371      Mg  0.43250156  0.50896051  0.45430218     1.58100
O372        O  0.05892724  0.51356235  0.45187433    -0.85700
O373        O  0.03108910  0.55952187  0.38318335    -0.73000
C374        C  0.42302156  0.85987484  0.54054969     0.95100
O375        O  0.47173694  0.53130966  0.61682254    -0.72800
O376        O  0.40604242  0.87548243  0.54703266    -0.80300
Mg377      Mg  0.00861427  0.57634609  0.54554201     1.58000
C378        C  0.06342350  0.92350540  0.45947307     0.95000
O379        O  0.04601450  0.62581827  0.48328073    -0.78600
H380        H  0.06641999  0.51516300  0.34757571    -0.03900
C381        C  0.49949460  0.94771798  0.60737585     0.90000
O382        O  0.44069480  0.97217432  0.38296948    -0.73100
O383        O  0.04563144  0.55924997  0.54837701    -0.85900
O384        O  0.07936723  0.95421518  0.48340771    -0.78700
C385        C  0.14025804  0.56384446  0.54096433     0.95200
C386        C  0.07674664  0.64063098  0.45945035     0.95000
Mg387      Mg  0.49115393  0.92415968  0.45445790     1.58000
O388        O  0.45375367  0.87468754  0.51671914    -0.78600
O389        O  0.02803117  0.96919624  0.38317744    -0.72900
O390        O  0.12549880  0.57978999  0.51706952    -0.78700
O391        O  0.46895341  0.59397287  0.54714877    -0.80400
O392        O  0.37426939  0.92071578  0.48293026    -0.78700
C393        C  0.05213510  0.00000635  0.39276170     0.89400
O394        O  0.45413672  0.94125572  0.45162300    -0.85900
O395        O  0.01310860  0.95450434  0.54831447    -0.86000
O396        O  0.46867906  0.94098386  0.61681673    -0.73000
Mg397      Mg  0.07606301  0.56770204  0.45464645     1.58000
O398        O  0.12459475  0.53123628  0.54749810    -0.80400
H399        H  0.48516270  0.55191253  0.34735518    -0.04100
O400        O  0.44084097  0.98694350  0.54812560    -0.85700
H401        H  0.43334808  0.98534288  0.65242419    -0.04000
H402        H  0.44829678  0.93385821  0.34728694    -0.04100
C403        C  0.44763313  0.50049951  0.60723819     0.89400
C404        C  0.00027358  0.55278774  0.39262415     0.90000
C405        C  0.44740111  0.94809155  0.39251565     0.90100
H406        H  0.01460549  0.94859315  0.65264473    -0.04100
O407        O  0.05907336  0.52833141  0.61703066    -0.73100
Mg408      Mg  0.42370517  0.93280375  0.54535354     1.58000
H409        H  0.05147141  0.56664758  0.65271305    -0.04100
C410        C  0.43634463  0.57700038  0.54052668     0.95000
O411        O  0.37517344  0.96926949  0.45250170    -0.80400
C412        C  0.35951016  0.93666132  0.45903545     0.95100
O413        O  0.09372575  0.62502336  0.45296745    -0.80300
Mg414      Mg  0.06726660  0.99154524  0.54569770     1.58200
O415        O  0.42040083  0.54629059  0.51659207    -0.78700
O416        O  0.03081471  0.90653282  0.45285104    -0.80400
C417        C  0.09327844  0.67675791  0.44177714    -0.10900
C418        C  0.10758154  0.70762582  0.43313234    -0.12400
C419        C  0.32337350  0.91708366  0.44138803    -0.10900
C420        C  0.29249207  0.90059041  0.43281492    -0.12400
C421        C  0.09950319  0.89263319  0.43316558    -0.10900
C422        C  0.08300362  0.90698194  0.44182535    -0.12400
C423        C  0.08308349  0.67676350  0.94171163    -0.10900
C424        C  0.09956495  0.70763846  0.93308247    -0.12400
C425        C  0.29249837  0.89255316  0.93287661    -0.10900
C426        C  0.32337375  0.90686747  0.94146556    -0.12400
C427        C  0.10752766  0.90066396  0.93315358    -0.10900
C428        C  0.09319548  0.91717908  0.94181337    -0.12400
C429        C  0.16643439  0.83367301  0.77885823    -0.16100
C430        C  0.16645438  0.83366629  0.71521358     0.07900
C431        C  0.16648833  0.83365449  0.64071373     0.09800
C432        C  0.16650286  0.83364559  0.57709404    -0.17000
C433        C  0.16650420  0.83365453  0.07709404    -0.16100
C434        C  0.16647554  0.83364477  0.14071371     0.06900
C435        C  0.16642603  0.83363453  0.21521356     0.09800
C436        C  0.16639923  0.83363026  0.27885821    -0.17000
C437        C  0.41676463  0.59352397  0.55817439    -0.10900
C438        C  0.40026504  0.60787270  0.56683415    -0.12400
C439        C  0.39218669  0.79288002  0.56686785    -0.10900
C440        C  0.40648982  0.82374793  0.55822303    -0.12400
C441        C  0.17639468  0.58342215  0.55861187    -0.10900
C442        C  0.20727610  0.59991542  0.56718521    -0.12400
C443        C  0.39224052  0.59984189  0.06684649    -0.10900
C444        C  0.40657277  0.58332684  0.05818667    -0.12400
C445        C  0.41668464  0.82374239  0.05828839    -0.10900
C446        C  0.40020316  0.79286741  0.06691752    -0.12400
C447        C  0.17639435  0.59363830  0.05853421    -0.10900
C448        C  0.20726974  0.60795254  0.06712316    -0.12400
C449        C  0.33336894  0.66687547  0.72114175    -0.16100
C450        C  0.33334212  0.66687118  0.78478639     0.07900
C451        C  0.33329265  0.66686101  0.85928624     0.09800
C452        C  0.33326400  0.66685132  0.92290592    -0.17000
C453        C  0.33326525  0.66686031  0.42290596    -0.16100
C454        C  0.33327980  0.66685129  0.35928628     0.07900
C455        C  0.33331380  0.66683947  0.28478642     0.09800
C456        C  0.33333378  0.66683283  0.22114179    -0.17000
C457        C  0.83332248  0.16683353  0.14363999     0.32400
C458        C  0.83327612  0.16684286  0.00038712     0.32400
C459        C  0.85006815  0.14781694  0.10859112    -0.03800
C460        C  0.79751104  0.15005890  0.10864731    -0.04600
C461        C  0.85235225  0.20263371  0.10859876    -0.04500
C462        C  0.84991837  0.14796724  0.03506798    -0.03800
C463        C  0.79775335  0.15018633  0.03512393    -0.04600
C464        C  0.85218650  0.20236971  0.03507632    -0.04500
C465        C  0.86563602  0.13011377  0.01245115    -0.29900
N466        N  0.87535096  0.11911039  0.06998299     0.16600
C467        C  0.86607199  0.12964589  0.12918370    -0.29900
H468        H  0.87059826  0.12449225  0.18275877     0.18600
C469        C  0.76413739  0.13448505  0.01258180    -0.28800
N470        N  0.74345456  0.12480480  0.07016391     0.15400
C471        C  0.76333224  0.13408870  0.12931819    -0.28800
C472        C  0.87000060  0.23597865  0.01247775    -0.29100
N473        N  0.88099214  0.25668088  0.07002417     0.15900
H474        H  0.87464209  0.24478257  0.95823840     0.18500
C475        C  0.87048924  0.23682155  0.12921218    -0.29100
H476        H  0.87562354  0.24648133  0.18279349     0.18500
H477        H  0.75369221  0.12960223  0.18291546     0.18500
H478        H  0.86972256  0.12543382  0.95820556     0.18600
H479        H  0.75531707  0.13040053  0.95835719     0.18500
C480        C  0.83328951  0.16686548  0.50038715     0.32400
C481        C  0.83335278  0.16687278  0.64363997     0.32400
C482        C  0.85218189  0.15024000  0.53506512    -0.03800
C483        C  0.84995877  0.20239562  0.53506142    -0.04600
C484        C  0.79777000  0.14796696  0.53514178    -0.04500
C485        C  0.85235897  0.15011671  0.60858801    -0.03800
C486        C  0.85011451  0.20266784  0.60858443    -0.04600
C487        C  0.79753624  0.14782956  0.60866474    -0.04500
C488        C  0.87051882  0.13410049  0.62917731    -0.29900
N489        N  0.88102196  0.12478896  0.56997466     0.16600
C490        C  0.87000902  0.13449519  0.51244481    -0.29900
H491        H  0.87465763  0.13037700  0.45819844     0.18600
C492        C  0.86608817  0.23685202  0.62918421    -0.28800
N493        N  0.87534583  0.25670160  0.56998847     0.15400
C494        C  0.86564596  0.23599643  0.51244996    -0.28800
C495        C  0.76335496  0.12968367  0.62935279    -0.29100
N496        N  0.74346769  0.11914676  0.57020830     0.15900
H497        H  0.75371850  0.12456177  0.68295482     0.18500
C498        C  0.76414667  0.13012583  0.51261608    -0.29100
H499        H  0.75531741  0.12545290  0.45839579     0.18500
H500        H  0.86970514  0.24479120  0.45820730     0.18500
H501        H  0.87568028  0.12958111  0.68275149     0.18600
H502        H  0.87059246  0.24651434  0.68276175     0.18500
C503        C  0.66649207  0.33366301  0.99961284     0.32400
C504        C  0.66644573  0.33367235  0.85635998     0.32400
C505        C  0.64984980  0.35253859  0.96493193    -0.03800
C506        C  0.70201485  0.35031955  0.96487606    -0.04600
C507        C  0.64758170  0.29813615  0.96492361    -0.04500
C508        C  0.64970004  0.35268890  0.89140883    -0.03800
C509        C  0.70225716  0.35044699  0.89135270    -0.04600
C510        C  0.64741596  0.29787217  0.89140119    -0.04500
C511        C  0.63369611  0.37085985  0.87081619    -0.29900
N512        N  0.62441710  0.38139532  0.93001684     0.16600
C513        C  0.63413206  0.37039198  0.98754876    -0.29900
H514        H  0.63004552  0.37507193  0.04179425     0.18600
C515        C  0.73643594  0.36641717  0.87068171    -0.28800
N516        N  0.75631362  0.37570110  0.92983603     0.15400
C517        C  0.73563082  0.36602083  0.98741817    -0.28800
C518        C  0.62927896  0.26368434  0.87078763    -0.29100
N519        N  0.61877606  0.24382501  0.92997573     0.15900
H520        H  0.62414469  0.25402461  0.81720639     0.18500
C521        C  0.62976758  0.26452722  0.98752216    -0.29100
H522        H  0.62512610  0.25572330  0.04176152     0.18500
H523        H  0.74445117  0.37010532  0.04164277     0.18500
H524        H  0.62916987  0.37601349  0.81724104     0.18600
H525        H  0.74607593  0.37090358  0.81708450     0.18500
C526        C  0.66641537  0.33363295  0.35635999     0.32400
C527        C  0.66647864  0.33364031  0.49961284     0.32400
C528        C  0.64740920  0.35038906  0.39141185    -0.03800
C529        C  0.64965362  0.29783790  0.39141561    -0.04600
C530        C  0.70223192  0.35267617  0.39133527    -0.04500
C531        C  0.64758629  0.35026582  0.46493475    -0.03800
C532        C  0.64980937  0.29811016  0.46493862    -0.04600
C533        C  0.70199813  0.35253880  0.46485825    -0.04500
C534        C  0.62975923  0.36601070  0.48755497    -0.29900
N535        N  0.61874631  0.37571694  0.43002509     0.16600
C536        C  0.62924940  0.36640532  0.37082248    -0.29900
H537        H  0.62408794  0.37092466  0.31724825     0.18600
C538        C  0.63412218  0.26450936  0.48755009    -0.28800
N539        N  0.62442230  0.24380416  0.43001167     0.15400
C540        C  0.63367996  0.26365372  0.37081589    -0.28800
C541        C  0.73562144  0.37037993  0.48738403    -0.29100
N542        N  0.75630045  0.38135899  0.42979190     0.15900
H543        H  0.74445064  0.37505290  0.54160440     0.18500
C544        C  0.73641322  0.37082208  0.37064733    -0.29100
H545        H  0.74604973  0.37594400  0.31704537     0.18500
H546        H  0.62917567  0.25399138  0.31723839     0.18500
H547        H  0.62511062  0.37012892  0.54180132     0.18600
H548        H  0.63006301  0.25571460  0.54179281     0.18500
O549        O  0.54561221  0.48700804  0.04836207    -0.86000
C550        C  0.55212470  0.05280506  0.89269649     0.90100
Mg551      Mg  0.50856887  0.43285824  0.04558688     1.58100
O552        O  0.51316274  0.05925345  0.04826071    -0.85700
O553        O  0.55909472  0.03138418  0.11697291    -0.73000
C554        C  0.85950475  0.42340588  0.95913465     0.95100
O555        O  0.53102449  0.47219766  0.88317892    -0.72800
O556        O  0.87512638  0.40644214  0.95262126    -0.80300
Mg557      Mg  0.57602205  0.00902096  0.95459421     1.58000
C558        C  0.92309951  0.06375152  0.04052686     0.95000
O559        O  0.62546593  0.04638353  0.01697877    -0.78600
H560        H  0.51469232  0.06666393  0.15257951    -0.03900
C561        C  0.94740284  0.49992583  0.89254210     0.90000
O562        O  0.97172936  0.44099700  0.11687583    -0.73100
O563        O  0.55892361  0.04603271  0.95180570    -0.85900
O564        O  0.95382819  0.07970445  0.01666853    -0.78700
C565        C  0.56349871  0.14062939  0.95935125     0.95200
C566        C  0.64026341  0.07709990  0.04086512     0.95000
Mg567      Mg  0.92374606  0.49148480  0.04540562     1.58000
O568        O  0.87430220  0.45412226  0.98302096    -0.78600
O569        O  0.96874369  0.02830820  0.11682114    -0.72900
O570        O  0.57943581  0.12586481  0.98326644    -0.78700
O571        O  0.59365301  0.46936365  0.95294088    -0.80400
O572        O  0.92033233  0.37464104  0.01673339    -0.78700
C573        C  0.99956445  0.05241571  0.10733726     0.89400
O574        O  0.94084450  0.45447301  0.04819414    -0.85900
O575        O  0.95415590  0.01349773  0.95163773    -0.86000
O576        O  0.94067341  0.46912157  0.88302688    -0.73000
Mg577      Mg  0.56731387  0.07639795  0.04560065     1.58000
O578        O  0.53088973  0.12496862  0.95275796    -0.80400
H579        H  0.55146411  0.48543864  0.15269758    -0.04100
O580        O  0.98660542  0.44125239  0.95173930    -0.85700
H581        H  0.98507585  0.43384202  0.84742048    -0.04000
H582        H  0.93337765  0.44856231  0.15250478    -0.04100
C583        C  0.50020373  0.44809014  0.89266278     0.89400
C584        C  0.55236528  0.00057991  0.10745769     0.90000
C585        C  0.94764347  0.44770078  0.10730342     0.90100
H586        H  0.94830398  0.01506712  0.84730222    -0.04100
O587        O  0.52803885  0.05950888  0.88312417    -0.73100
Mg588      Mg  0.93245428  0.42410783  0.95439914     1.58000
H589        H  0.56639059  0.05194366  0.84749510    -0.04100
C590        C  0.57666865  0.43675430  0.95947305     0.95000
O591        O  0.96887842  0.37553723  0.04724183    -0.80400
C592        C  0.93626944  0.35987648  0.04064866     0.95100
O593        O  0.62464180  0.09406366  0.04737851    -0.80300
Mg594      Mg  0.99119923  0.06764758  0.95441300     1.58200
O595        O  0.54593995  0.42080134  0.98333125    -0.78700
O596        O  0.90611511  0.03114216  0.04705897    -0.80400
O597        O  0.98665958  0.04600135  0.45168549    -0.86000
C598        C  0.55236708  0.05241418  0.60748437     0.90100
Mg599      Mg  0.93250161  0.00896051  0.45430217     1.58100
O600        O  0.55892718  0.01356236  0.45187434    -0.85700
O601        O  0.53108910  0.05952205  0.38318337    -0.73000
C602        C  0.92302144  0.35987482  0.54054966     0.95100
O603        O  0.97173698  0.03130963  0.61682258    -0.72800
O604        O  0.90604229  0.37548240  0.54703265    -0.80300
Mg605      Mg  0.50861425  0.07634607  0.54554200     1.58000
C606        C  0.56342354  0.42350544  0.45947309     0.95000
O607        O  0.54601456  0.12581824  0.48328072    -0.78600
H608        H  0.56642011  0.01516295  0.34757580    -0.03900
C609        C  0.99949461  0.44771794  0.60737583     0.90000
O610        O  0.94069484  0.47217435  0.38296936    -0.73100
O611        O  0.54563147  0.05924999  0.54837700    -0.85900
O612        O  0.57936729  0.45421521  0.48340778    -0.78700
C613        C  0.64025801  0.06384444  0.54096433     0.95200
C614        C  0.57674671  0.14063096  0.45945036     0.95000
Mg615      Mg  0.99115393  0.42415975  0.45445793     1.58000
O616        O  0.95375355  0.37468754  0.51671912    -0.78600
O617        O  0.52803123  0.46919626  0.38317741    -0.72900
O618        O  0.62549880  0.07979000  0.51706954    -0.78700
O619        O  0.96895344  0.09397291  0.54714886    -0.80400
O620        O  0.87426933  0.42071574  0.48293022    -0.78700
C621        C  0.55213515  0.50000636  0.39276170     0.89400
O622        O  0.95413677  0.44125581  0.45162309    -0.85900
O623        O  0.51310855  0.45450437  0.54831447    -0.86000
O624        O  0.96867906  0.44098381  0.61681674    -0.73000
Mg625      Mg  0.57606302  0.06770208  0.45464642     1.58000
O626        O  0.62459469  0.03123626  0.54749810    -0.80400
H627        H  0.98516268  0.05191249  0.34735520    -0.04100
O628        O  0.94084102  0.48694350  0.54812560    -0.85700
H629        H  0.93334808  0.48534292  0.65242416    -0.04000
H630        H  0.94829678  0.43385816  0.34728707    -0.04100
C631        C  0.94763311  0.00049953  0.60723816     0.89400
C632        C  0.50027352  0.05278777  0.39262417     0.90000
C633        C  0.94740113  0.44809158  0.39251570     0.90100
H634        H  0.51460542  0.44859308  0.65264469    -0.04100
O635        O  0.55907328  0.02833134  0.61703070    -0.73100
Mg636      Mg  0.92370515  0.43280374  0.54535356     1.58000
H637        H  0.55147147  0.06664762  0.65271301    -0.04100
C638        C  0.93634466  0.07700039  0.54052668     0.95000
O639        O  0.87517351  0.46926951  0.45250170    -0.80400
C640        C  0.85951015  0.43666134  0.45903546     0.95100
O641        O  0.59372585  0.12502337  0.45296749    -0.80300
Mg642      Mg  0.56726655  0.49154524  0.54569772     1.58200
O643        O  0.92040089  0.04629062  0.51659196    -0.78700
O644        O  0.53081475  0.40653291  0.45285097    -0.80400
C645        C  0.59327852  0.17675788  0.44177715    -0.10900
C646        C  0.60758157  0.20762579  0.43313234    -0.12400
C647        C  0.82337350  0.41708373  0.44138807    -0.10900
C648        C  0.79249206  0.40059043  0.43281491    -0.12400
C649        C  0.59950322  0.39263320  0.43316554    -0.10900
C650        C  0.58300362  0.40698193  0.44182536    -0.12400
C651        C  0.58308355  0.17676352  0.94171163    -0.10900
C652        C  0.59956504  0.20763849  0.93308245    -0.12400
C653        C  0.79249835  0.39255318  0.93287669    -0.10900
C654        C  0.82337373  0.40686745  0.94146560    -0.12400
C655        C  0.60752768  0.40066397  0.93315359    -0.10900
C656        C  0.59319552  0.41717911  0.94181342    -0.12400
C657        C  0.66643445  0.33367304  0.77885822    -0.16100
C658        C  0.66645428  0.33366626  0.71521358     0.07900
C659        C  0.66648823  0.33365445  0.64071372     0.09800
C660        C  0.66650285  0.33364556  0.57709404    -0.17000
C661        C  0.66650420  0.33365453  0.07709404    -0.16100
C662        C  0.66647544  0.33364474  0.14071372     0.06900
C663        C  0.66642587  0.33363450  0.21521357     0.09800
C664        C  0.66639910  0.33363023  0.27885822    -0.17000
C665        C  0.91676461  0.09352393  0.55817440    -0.10900
C666        C  0.90026507  0.10787272  0.56683420    -0.12400
C667        C  0.89218659  0.29287999  0.56686785    -0.10900
C668        C  0.90648967  0.32374790  0.55822301    -0.12400
C669        C  0.67639465  0.08342211  0.55861185    -0.10900
C670        C  0.70727608  0.09991539  0.56718525    -0.12400
C671        C  0.89224051  0.09984187  0.06684633    -0.10900
C672        C  0.90657273  0.08332677  0.05818661    -0.12400
C673        C  0.91668460  0.32374238  0.05828842    -0.10900
C674        C  0.90020315  0.29286740  0.06691748    -0.12400
C675        C  0.67639444  0.09363831  0.05853419    -0.10900
C676        C  0.70726982  0.10795264  0.06712313    -0.12400
C677        C  0.83336904  0.16687549  0.72114174    -0.16100
C678        C  0.83334230  0.16687135  0.78478638     0.07900
C679        C  0.83329277  0.16686117  0.85928624     0.09800
C680        C  0.83326398  0.16685134  0.92290591    -0.17000
C681        C  0.83326531  0.16686027  0.42290596    -0.16100
C682        C  0.83327986  0.16685132  0.35928628     0.07900
C683        C  0.83331377  0.16683958  0.28478642     0.09800
C684        C  0.83333372  0.16683286  0.22114179    -0.17000
C685        C  0.83332245  0.66683354  0.14364001     0.32400
C686        C  0.83327614  0.66684288  0.00038714     0.32400
C687        C  0.85006812  0.64781695  0.10859113    -0.03800
C688        C  0.79751101  0.65005895  0.10864729    -0.04600
C689        C  0.85235227  0.70263372  0.10859882    -0.04500
C690        C  0.84991835  0.64796725  0.03506802    -0.03800
C691        C  0.79775335  0.65018638  0.03512391    -0.04600
C692        C  0.85218655  0.70236973  0.03507638    -0.04500
C693        C  0.86563601  0.63011380  0.01245116    -0.29900
N694        N  0.87535094  0.61911043  0.06998300     0.16600
C695        C  0.86607198  0.62964592  0.12918371    -0.29900
H696        H  0.87059825  0.62449228  0.18275878     0.18600
C697        C  0.76413736  0.63448504  0.01258179    -0.28800
N698        N  0.74345453  0.62480469  0.07016390     0.15400
C699        C  0.76333220  0.63408868  0.12931817    -0.28800
C700        C  0.87000067  0.73597866  0.01247776    -0.29100
N701        N  0.88099222  0.75668089  0.07002427     0.15900
H702        H  0.87464204  0.74478255  0.95823848     0.18500
C703        C  0.87048926  0.73682155  0.12921226    -0.29100
H704        H  0.87562346  0.74648131  0.18279363     0.18500
H705        H  0.75369217  0.62960223  0.18291545     0.18500
H706        H  0.86972256  0.62543386  0.95820556     0.18600
H707        H  0.75531702  0.63040052  0.95835720     0.18500
C708        C  0.83328952  0.66686552  0.50038716     0.32400
C709        C  0.83335278  0.66687280  0.64363998     0.32400
C710        C  0.85218191  0.65024004  0.53506512    -0.03800
C711        C  0.84995874  0.70239565  0.53506144    -0.04600
C712        C  0.79777002  0.64796696  0.53514179    -0.04500
C713        C  0.85235899  0.65011674  0.60858801    -0.03800
C714        C  0.85011448  0.70266786  0.60858445    -0.04600
C715        C  0.79753625  0.64782956  0.60866476    -0.04500
C716        C  0.87051879  0.63410047  0.62917730    -0.29900
N717        N  0.88102188  0.62478887  0.56997465     0.16600
C718        C  0.87000898  0.63449516  0.51244482    -0.29900
H719        H  0.87465763  0.63037702  0.45819845     0.18600
C720        C  0.86608815  0.73685204  0.62918421    -0.28800
N721        N  0.87534581  0.75670163  0.56998847     0.15400
C722        C  0.86564594  0.73599646  0.51244997    -0.28800
C723        C  0.76335496  0.62968368  0.62935278    -0.29100
N724        N  0.74346773  0.61914678  0.57020826     0.15900
H725        H  0.75371847  0.62456181  0.68295478     0.18500
C726        C  0.76414669  0.63012583  0.51261605    -0.29100
H727        H  0.75531745  0.62545288  0.45839577     0.18500
H728        H  0.86970513  0.74479123  0.45820731     0.18500
H729        H  0.87568029  0.62958113  0.68275148     0.18600
H730        H  0.87059245  0.74651436  0.68276175     0.18500
C731        C  0.66649203  0.83366295  0.99961284     0.32400
C732        C  0.66644568  0.83367229  0.85635998     0.32400
C733        C  0.64984981  0.85253860  0.96493193    -0.03800
C734        C  0.70201480  0.85031938  0.96487606    -0.04600
C735        C  0.64758160  0.79813610  0.96492363    -0.04500
C736        C  0.64970004  0.85268890  0.89140882    -0.03800
C737        C  0.70225710  0.85044681  0.89135270    -0.04600
C738        C  0.64741586  0.79787212  0.89140119    -0.04500
C739        C  0.63369612  0.87085987  0.87081619    -0.29900
N740        N  0.62441711  0.88139534  0.93001684     0.16600
C741        C  0.63413205  0.87039198  0.98754874    -0.29900
H742        H  0.63004545  0.87507189  0.04179423     0.18600
C743        C  0.73643589  0.86641705  0.87068170    -0.28800
N744        N  0.75631359  0.87570103  0.92983601     0.15400
C745        C  0.73563079  0.86602071  0.98741815    -0.28800
C746        C  0.62927889  0.76368428  0.87078763    -0.29100
N747        N  0.61877601  0.74382497  0.92997574     0.15900
H748        H  0.62414461  0.75402452  0.81720641     0.18500
C749        C  0.62976752  0.76452717  0.98752219    -0.29100
H750        H  0.62512604  0.75572324  0.04176153     0.18500
H751        H  0.74445117  0.87010526  0.04164272     0.18500
H752        H  0.62916985  0.87601349  0.81724105     0.18600
H753        H  0.74607586  0.87090349  0.81708449     0.18500
C754        C  0.66641542  0.83363297  0.35635998     0.32400
C755        C  0.66647865  0.83364034  0.49961284     0.32400
C756        C  0.64740923  0.85038908  0.39141182    -0.03800
C757        C  0.64965363  0.79783793  0.39141561    -0.04600
C758        C  0.70223194  0.85267617  0.39133530    -0.04500
C759        C  0.64758632  0.85026584  0.46493472    -0.03800
C760        C  0.64980937  0.79811019  0.46493862    -0.04600
C761        C  0.70199815  0.85253881  0.46485826    -0.04500
C762        C  0.62975917  0.86601063  0.48755496    -0.29900
N763        N  0.61874625  0.87571686  0.43002509     0.16600
C764        C  0.62924933  0.86640524  0.37082246    -0.29900
H765        H  0.62408781  0.87092452  0.31724826     0.18600
C766        C  0.63412217  0.76450939  0.48755009    -0.28800
N767        N  0.62442228  0.74380419  0.43001167     0.15400
C768        C  0.63367994  0.76365375  0.37081588    -0.28800
C769        C  0.73562145  0.87037997  0.48738406    -0.29100
N770        N  0.75630047  0.88135905  0.42979191     0.15900
H771        H  0.74445064  0.87505292  0.54160441     0.18500
C772        C  0.73641324  0.87082212  0.37064734    -0.29100
H773        H  0.74604976  0.87594406  0.31704539     0.18500
H774        H  0.62917566  0.75399141  0.31723838     0.18500
H775        H  0.62511051  0.87012877  0.54180132     0.18600
H776        H  0.63006300  0.75571464  0.54179281     0.18500
O777        O  0.54561223  0.98700803  0.04836208    -0.86000
C778        C  0.55212466  0.55280504  0.89269650     0.90100
Mg779      Mg  0.50856889  0.93285823  0.04558690     1.58100
O780        O  0.51316276  0.55925348  0.04826070    -0.85700
O781        O  0.55909469  0.53138418  0.11697296    -0.73000
C782        C  0.85950475  0.92340592  0.95913466     0.95100
O783        O  0.53102443  0.97219755  0.88317895    -0.72800
O784        O  0.87512638  0.90644218  0.95262128    -0.80300
Mg785      Mg  0.57602207  0.50902102  0.95459421     1.58000
C786        C  0.92309951  0.56375155  0.04052684     0.95000
O787        O  0.62546590  0.54638356  0.01697877    -0.78600
H788        H  0.51469238  0.56666385  0.15257957    -0.03900
C789        C  0.94740284  0.99992586  0.89254210     0.90000
O790        O  0.97172935  0.94099702  0.11687584    -0.73100
O791        O  0.55892363  0.54603275  0.95180572    -0.85900
O792        O  0.95382819  0.57970448  0.01666851    -0.78700
C793        C  0.56349872  0.64062937  0.95935123     0.95200
C794        C  0.64026338  0.57709992  0.04086512     0.95000
Mg795      Mg  0.92374606  0.99148481  0.04540562     1.58000
O796        O  0.87430219  0.95412230  0.98302096    -0.78600
O797        O  0.96874368  0.52830823  0.11682113    -0.72900
O798        O  0.57943582  0.62586480  0.98326643    -0.78700
O799        O  0.59365298  0.96936362  0.95294088    -0.80400
O800        O  0.92033235  0.87464106  0.01673340    -0.78700
C801        C  0.99956444  0.55241574  0.10733727     0.89400
O802        O  0.94084449  0.95447303  0.04819413    -0.85900
O803        O  0.95415590  0.51349772  0.95163771    -0.86000
O804        O  0.94067339  0.96912158  0.88302684    -0.73000
Mg805      Mg  0.56731386  0.57639797  0.04560067     1.58000
O806        O  0.53088974  0.62496860  0.95275794    -0.80400
H807        H  0.55146419  0.98543865  0.15269754    -0.04100
O808        O  0.98660534  0.94125229  0.95173928    -0.85700
H809        H  0.98507573  0.93384201  0.84742044    -0.04000
H810        H  0.93337764  0.94856236  0.15250477    -0.04100
C811        C  0.50020364  0.94809005  0.89266276     0.89400
C812        C  0.55236526  0.50057992  0.10745769     0.90000
C813        C  0.94764346  0.94770081  0.10730342     0.90100
H814        H  0.94830397  0.51506708  0.84730219    -0.04100
O815        O  0.52803873  0.55950876  0.88312415    -0.73100
Mg816      Mg  0.93245425  0.92410783  0.95439915     1.58000
H817        H  0.56639057  0.55194367  0.84749512    -0.04100
C818        C  0.57666862  0.93675427  0.95947303     0.95000
O819        O  0.96887844  0.87553724  0.04724186    -0.80400
C820        C  0.93626945  0.85987650  0.04064866     0.95100
O821        O  0.62464178  0.59406369  0.04737851    -0.80300
Mg822      Mg  0.99119923  0.56764755  0.95441300     1.58200
O823        O  0.54593992  0.92080130  0.98333123    -0.78700
O824        O  0.90611511  0.53114219  0.04705897    -0.80400
O825        O  0.98665959  0.54600141  0.45168546    -0.86000
C826        C  0.55236711  0.55241420  0.60748438     0.90100
Mg827      Mg  0.93250161  0.50896051  0.45430217     1.58100
O828        O  0.55892727  0.51356236  0.45187431    -0.85700
O829        O  0.53108907  0.55952188  0.38318337    -0.73000
C830        C  0.92302152  0.85987484  0.54054969     0.95100
O831        O  0.97173696  0.53130965  0.61682256    -0.72800
O832        O  0.90604238  0.87548242  0.54703272    -0.80300
Mg833      Mg  0.50861424  0.57634610  0.54554200     1.58000
C834        C  0.56342354  0.92350541  0.45947309     0.95000
O835        O  0.54601455  0.62581828  0.48328073    -0.78600
H836        H  0.56642006  0.51516298  0.34757570    -0.03900
C837        C  0.99949466  0.94771798  0.60737585     0.90000
O838        O  0.94069486  0.97217432  0.38296948    -0.73100
O839        O  0.54563145  0.55924998  0.54837703    -0.85900
O840        O  0.57936727  0.95421519  0.48340772    -0.78700
C841        C  0.64025804  0.56384445  0.54096432     0.95200
C842        C  0.57674669  0.64063098  0.45945035     0.95000
Mg843      Mg  0.99115393  0.92415969  0.45445791     1.58000
O844        O  0.95375361  0.87468754  0.51671907    -0.78600
O845        O  0.52803121  0.96919623  0.38317740    -0.72900
O846        O  0.62549886  0.57979004  0.51706946    -0.78700
O847        O  0.96895347  0.59397287  0.54714878    -0.80400
O848        O  0.87426940  0.92071577  0.48293024    -0.78700
C849        C  0.55213511  0.00000635  0.39276174     0.89400
O850        O  0.95413677  0.94125572  0.45162302    -0.85900
O851        O  0.51310854  0.95450435  0.54831445    -0.86000
O852        O  0.96867913  0.94098387  0.61681670    -0.73000
Mg853      Mg  0.57606303  0.56770205  0.45464643     1.58000
O854        O  0.62459469  0.53123628  0.54749817    -0.80400
H855        H  0.98516276  0.55191256  0.34735513    -0.04100
O856        O  0.94084104  0.98694350  0.54812560    -0.85700
H857        H  0.93334814  0.98534288  0.65242418    -0.04000
H858        H  0.94829684  0.93385821  0.34728695    -0.04100
C859        C  0.94763308  0.50049954  0.60723816     0.89400
C860        C  0.50027351  0.55278774  0.39262414     0.90000
C861        C  0.94740117  0.94809155  0.39251565     0.90100
H862        H  0.51460542  0.94859313  0.65264469    -0.04100
O863        O  0.55907337  0.52833140  0.61703066    -0.73100
Mg864      Mg  0.92370521  0.93280375  0.54535353     1.58000
H865        H  0.55147151  0.56664763  0.65271306    -0.04100
C866        C  0.93634469  0.57700039  0.54052669     0.95000
O867        O  0.87517349  0.96926949  0.45250169    -0.80400
C868        C  0.85951018  0.93666132  0.45903545     0.95100
O869        O  0.59372580  0.62502335  0.45296746    -0.80300
Mg870      Mg  0.56726654  0.99154523  0.54569770     1.58200
O871        O  0.92040088  0.54629060  0.51659207    -0.78700
O872        O  0.53081475  0.90653284  0.45285104    -0.80400
C873        C  0.59327851  0.67675791  0.44177715    -0.10900
C874        C  0.60758155  0.70762582  0.43313234    -0.12400
C875        C  0.82337352  0.91708368  0.44138808    -0.10900
C876        C  0.79249207  0.90059043  0.43281493    -0.12400
C877        C  0.59950323  0.89263320  0.43316554    -0.10900
C878        C  0.58300367  0.90698195  0.44182534    -0.12400
C879        C  0.58308355  0.67676349  0.94171163    -0.10900
C880        C  0.59956500  0.70763846  0.93308247    -0.12400
C881        C  0.79249833  0.89255317  0.93287666    -0.10900
C882        C  0.82337372  0.90686747  0.94146559    -0.12400
C883        C  0.60752767  0.90066398  0.93315359    -0.10900
C884        C  0.59319549  0.91717910  0.94181341    -0.12400
C885        C  0.66643445  0.83367301  0.77885822    -0.16100
C886        C  0.66645439  0.83366629  0.71521358     0.07900
C887        C  0.66648827  0.83365449  0.64071373     0.09800
C888        C  0.66650285  0.83364559  0.57709405    -0.17000
C889        C  0.66650422  0.83365453  0.07709403    -0.16100
C890        C  0.66647560  0.83364477  0.14071371     0.06900
C891        C  0.66642609  0.83363453  0.21521356     0.09800
C892        C  0.66639924  0.83363026  0.27885821    -0.17000
C893        C  0.91676468  0.59352399  0.55817440    -0.10900
C894        C  0.90026508  0.60787271  0.56683419    -0.12400
C895        C  0.89218663  0.79288001  0.56686786    -0.10900
C896        C  0.90648976  0.82374792  0.55822304    -0.12400
C897        C  0.67639470  0.58342210  0.55861185    -0.10900
C898        C  0.70727611  0.59991539  0.56718520    -0.12400
C899        C  0.89224050  0.59984190  0.06684633    -0.10900
C900        C  0.90657272  0.58332681  0.05818659    -0.12400
C901        C  0.91668461  0.82374240  0.05828841    -0.10900
C902        C  0.90020317  0.79286741  0.06691753    -0.12400
C903        C  0.67639440  0.59363829  0.05853421    -0.10900
C904        C  0.70726978  0.60795253  0.06712314    -0.12400
C905        C  0.83336899  0.66687545  0.72114174    -0.16100
C906        C  0.83334218  0.66687118  0.78478638     0.07900
C907        C  0.83329271  0.66686101  0.85928624     0.09800
C908        C  0.83326404  0.66685132  0.92290592    -0.17000
C909        C  0.83326530  0.66686031  0.42290596    -0.16100
C910        C  0.83327986  0.66685129  0.35928629     0.07900
C911        C  0.83331381  0.66683948  0.28478643     0.09800
C912        C  0.83333372  0.66683283  0.22114179    -0.17000
loop_ 
_geom_bond_atom_site_label_1 
_geom_bond_atom_site_label_2 
_geom_bond_distance 
_geom_bond_site_symmetry_2 
_ccdc_geom_bond_type 
C1            C3   1.542       .  S
C1            C5   1.541       .  S
C1            C4   1.541       .  S
C1          C228   1.468       .  S
C2            C6   1.529       .  S
C2            C8   1.529       .  S
C2            C7   1.529       .  S
C2          C224   1.468   1_554  S
C3           C11   1.385       .  A
C3            C6   1.393       .  A
C4           C15   1.385       .  A
C4            C7   1.393       .  A
C5           C19   1.385       .  A
C5            C8   1.393       .  A
C6            C9   1.374       .  A
C7           C13   1.374       .  A
C8           C16   1.374       .  A
C9           N10   1.355       .  A
C9           H22   1.083   1_554  S
N10          C11   1.361       .  A
N10         C215   1.408       .  S
C11          H12   1.082       .  S
C13          N14   1.355       .  A
C13          H23   1.083   1_554  S
N14          C15   1.361       .  A
N14         C220   1.408       .  S
C15          H21   1.082       .  S
C16          N17   1.355       .  A
C16          H18   1.083   1_554  S
N17          C19   1.361       .  A
N17         C218   1.408       .  S
C19          H20   1.082       .  S
C24          C26   1.529       .  S
C24          C28   1.529       .  S
C24          C27   1.529       .  S
C24         C225   1.468       .  S
C25          C29   1.542       .  S
C25          C31   1.541       .  S
C25          C30   1.541       .  S
C25         C221   1.468       .  S
C26          C34   1.374       .  A
C26          C29   1.393       .  A
C27          C38   1.374       .  A
C27          C30   1.393       .  A
C28          C42   1.374       .  A
C28          C31   1.393       .  A
C29          C32   1.385       .  A
C30          C36   1.385       .  A
C31          C39   1.385       .  A
C32          N33   1.361       .  A
C32          H45   1.082       .  S
N33          C34   1.355       .  A
N33         C210   1.408       .  S
C34          H35   1.083       .  S
C36          N37   1.361       .  A
C36          H46   1.082       .  S
N37          C38   1.355       .  A
N37         C211   1.408       .  S
C38          H44   1.083       .  S
C39          N40   1.361       .  A
C39          H41   1.082       .  S
N40          C42   1.355       .  A
N40         C214   1.408       .  S
C42          H43   1.083       .  S
C47          C49   1.529       .  S
C47          C51   1.529       .  S
C47          C50   1.529       .  S
C47         C205   1.468   1_556  S
C48          C52   1.542       .  S
C48          C54   1.541       .  S
C48          C53   1.541       .  S
C48         C201   1.468       .  S
C49          C57   1.374       .  A
C49          C52   1.393       .  A
C50          C61   1.374       .  A
C50          C53   1.393       .  A
C51          C65   1.374       .  A
C51          C54   1.393       .  A
C52          C55   1.385       .  A
C53          C59   1.385       .  A
C54          C62   1.385       .  A
C55          N56   1.361       .  A
C55          H68   1.082       .  S
N56          C57   1.355       .  A
N56         C199   1.408       .  S
C57          H58   1.083   1_556  S
C59          N60   1.361       .  A
C59          H69   1.082       .  S
N60          C61   1.355       .  A
N60         C197   1.408       .  S
C61          H67   1.083   1_556  S
C62          N63   1.361       .  A
C62          H64   1.082       .  S
N63          C65   1.355       .  A
N63         C196   1.408       .  S
C65          H66   1.083   1_556  S
C70          C72   1.542       .  S
C70          C74   1.541       .  S
C70          C73   1.541       .  S
C70         C208   1.468       .  S
C71          C75   1.529       .  S
C71          C77   1.529       .  S
C71          C76   1.529       .  S
C71         C204   1.468       .  S
C72          C80   1.385       .  A
C72          C75   1.393       .  A
C73          C84   1.385       .  A
C73          C76   1.393       .  A
C74          C88   1.385       .  A
C74          C77   1.393       .  A
C75          C78   1.374       .  A
C76          C82   1.374       .  A
C77          C85   1.374       .  A
C78          N79   1.355       .  A
C78          H91   1.083       .  S
N79          C80   1.361       .  A
N79         C193   1.408       .  S
C80          H81   1.082       .  S
C82          N83   1.355       .  A
C82          H92   1.083       .  S
N83          C84   1.361       .  A
N83         C190   1.408       .  S
C84          H90   1.082       .  S
C85          N86   1.355       .  A
C85          H87   1.083       .  S
N86          C88   1.361       .  A
N86         C192   1.408       .  S
C88          H89   1.082       .  S
O93         Mg95   2.151       .  S
O93        Mg329   2.155   1_554  S
O93         C356   1.237       .  S
C94         H133   1.081       .  S
C94         O107   1.237       .  S
C94         O131   1.271       .  A
Mg95        O580   2.155   1_454  S
Mg95        O139   2.325   1_554  S
Mg95        O591   2.281   1_455  S
Mg95        O562   2.301   1_455  S
O96        Mg121   2.151       .  S
O96        Mg594   2.155   1_454  S
O96         C573   1.237   1_455  S
O97         C128   1.271       .  A
O97        Mg121   2.301       .  S
C98         O100   1.273       .  A
C98         O112   1.276       .  A
C98         C198   1.444       .  S
O99         C127   1.271       .  A
O99        Mg329   2.301       .  S
O100       Mg132   2.281       .  S
Mg101       O107   2.151       .  S
Mg101       O321   2.155   1_546  S
Mg101       O103   2.325   1_556  S
Mg101       O327   2.301   1_545  S
Mg101       O343   2.281   1_545  S
C102        O140   1.273       .  A
C102        O108   1.276       .  A
C102        C216   1.444       .  S
O103        C110   1.276       .  A
H104        C573   1.081   1_455  S
C105        H358   1.081       .  S
C105        O347   1.237       .  S
C105        O120   1.271       .  A
O106        C129   1.271       .  A
O106       Mg551   2.301       .  S
O107       Mg121   2.155   1_556  S
O108       Mg138   2.325   1_554  S
C109        O122   1.273       .  A
C109        O114   1.276       .  A
C109        C195   1.444       .  S
C110        O137   1.273       .  A
C110        C219   1.444       .  S
Mg111       O118   2.151       .  S
Mg111       O347   2.155   1_554  S
Mg111       O112   2.325   1_554  S
Mg111       O341   2.301       .  S
Mg111       O368   2.281       .  S
O113        C117   1.271       .  A
O113       Mg339   2.301   1_545  S
O114       Mg121   2.325   1_556  S
O115        C134   1.273       .  A
O115       Mg329   2.281       .  S
O116        C136   1.276       .  A
O116       Mg132   2.325   1_554  S
C117        H560   1.081       .  S
C117        O552   1.237       .  S
O118       Mg132   2.155   1_554  S
O118        C129   1.237       .  S
O119       Mg138   2.151       .  S
O119       Mg339   2.155   1_546  S
O119        C333   1.237   1_545  S
O120       Mg132   2.301       .  S
Mg121       O137   2.281       .  S
O122       Mg594   2.281   1_455  S
H123        C356   1.081       .  S
O124       Mg132   2.151       .  S
O124       Mg551   2.155   1_556  S
O124        C583   1.237       .  S
H125        C583   1.081       .  S
H126        C129   1.081       .  S
C127        H581   1.081   1_455  S
C127        O580   1.237   1_455  S
C128        H351   1.081   1_545  S
C128        O321   1.237   1_545  S
H130        C333   1.081   1_545  S
O131       Mg594   2.301   1_455  S
C134        O139   1.276       .  A
C134        C200   1.444       .  S
O135        C136   1.273       .  A
O135       Mg551   2.281       .  S
C136        C217   1.444       .  S
Mg138       O552   2.155   1_556  S
Mg138       O578   2.281       .  S
Mg138       O587   2.301       .  S
O140       Mg339   2.281   1_545  S
O141       Mg143   2.151       .  S
O141       Mg605   2.155       .  S
O141        C632   1.237       .  S
C142        H181   1.082       .  S
C142        O155   1.237       .  S
C142        O179   1.271       .  A
Mg143       O400   2.155   1_545  S
Mg143       O187   2.325       .  S
Mg143       O411   2.281   1_545  S
Mg143       O382   2.301   1_545  S
O144       Mg169   2.151       .  S
O144       Mg414   2.155   1_545  S
O144        C393   1.237       .  S
O145        C176   1.271       .  A
O145       Mg169   2.301       .  S
C146        O148   1.273       .  A
C146        O160   1.276       .  A
C146        C212   1.444       .  S
O147        C175   1.271       .  A
O147       Mg605   2.301       .  S
O148       Mg180   2.281       .  S
Mg149       O155   2.151       .  S
Mg149       O597   2.155   1_455  S
Mg149       O151   2.325       .  S
Mg149       O603   2.301   1_455  S
Mg149       O619   2.281   1_455  S
C150        O188   1.273       .  A
C150        O156   1.276       .  A
C150        C194   1.444       .  S
O151        C158   1.276       .  A
H152        C393   1.081       .  S
C153        H634   1.081       .  S
C153        O623   1.237       .  S
C153        O168   1.271       .  A
O154        C177   1.271       .  A
O154       Mg371   2.301       .  S
O155       Mg169   2.155       .  S
O156       Mg186   2.325       .  S
C157        O170   1.273       .  A
C157        O162   1.276       .  A
C157        C213   1.444       .  S
C158        O185   1.273       .  A
C158        C189   1.444       .  S
Mg159       O166   2.151       .  S
Mg159       O623   2.155       .  S
Mg159       O160   2.325       .  S
Mg159       O617   2.301       .  S
Mg159       O644   2.281       .  S
O161        C165   1.271       .  A
O161       Mg615   2.301   1_455  S
O162       Mg169   2.325       .  S
O163        C182   1.273       .  A
O163       Mg605   2.281       .  S
O164        C184   1.276       .  A
O164       Mg180   2.325       .  S
C165        H380   1.081       .  S
C165        O372   1.237       .  S
O166       Mg180   2.155       .  S
O166        C177   1.237       .  S
O167       Mg186   2.151       .  S
O167       Mg615   2.155   1_455  S
O167        C609   1.237   1_455  S
O168       Mg180   2.301       .  S
Mg169       O185   2.281       .  S
O170       Mg414   2.281   1_545  S
H171        C632   1.081       .  S
O172       Mg180   2.151       .  S
O172       Mg371   2.155       .  S
O172        C403   1.237       .  S
H173        C403   1.081       .  S
H174        C177   1.082       .  S
C175        H401   1.081   1_545  S
C175        O400   1.237   1_545  S
C176        H627   1.081   1_455  S
C176        O597   1.237   1_455  S
H178        C609   1.081   1_455  S
O179       Mg414   2.301   1_545  S
C182        O187   1.276       .  A
C182        C209   1.444       .  S
O183        C184   1.273       .  A
O183       Mg371   2.281       .  S
C184        C191   1.444       .  S
Mg186       O372   2.155       .  S
Mg186       O398   2.281       .  S
Mg186       O407   2.301       .  S
O188       Mg615   2.281   1_455  S
C189        C190   1.211       .  T
C191        C192   1.211       .  T
C193        C194   1.211       .  T
C195        C196   1.211       .  T
C197        C198   1.211       .  T
C199        C200   1.211       .  T
C201        C202   1.206       .  T
C202        C203   1.411       .  S
C203        C204   1.205       .  T
C205        C206   1.205       .  T
C206        C207   1.411       .  S
C207        C208   1.206       .  T
C209        C210   1.211       .  T
C211        C212   1.211       .  T
C213        C214   1.211       .  T
C215        C216   1.211       .  T
C217        C218   1.211       .  T
C219        C220   1.211       .  T
C221        C222   1.206       .  T
C222        C223   1.411       .  S
C223        C224   1.205       .  T
C225        C226   1.205       .  T
C226        C227   1.411       .  S
C227        C228   1.206       .  T
C229        C231   1.542       .  S
C229        C233   1.541       .  S
C229        C232   1.541       .  S
C229        C456   1.468       .  S
C230        C234   1.529       .  S
C230        C236   1.529       .  S
C230        C235   1.529       .  S
C230        C452   1.468   1_554  S
C231        C239   1.385       .  A
C231        C234   1.393       .  A
C232        C243   1.385       .  A
C232        C235   1.393       .  A
C233        C247   1.385       .  A
C233        C236   1.393       .  A
C234        C237   1.374       .  A
C235        C241   1.374       .  A
C236        C244   1.374       .  A
C237        N238   1.355       .  A
C237        H250   1.083   1_554  S
N238        C239   1.361       .  A
N238        C443   1.408       .  S
C239        H240   1.082       .  S
C241        N242   1.355       .  A
C241        H251   1.083   1_554  S
N242        C243   1.361       .  A
N242        C448   1.408       .  S
C243        H249   1.082       .  S
C244        N245   1.355       .  A
C244        H246   1.083   1_554  S
N245        C247   1.361       .  A
N245        C446   1.408       .  S
C247        H248   1.082       .  S
C252        C254   1.529       .  S
C252        C256   1.529       .  S
C252        C255   1.529       .  S
C252        C453   1.468       .  S
C253        C257   1.542       .  S
C253        C259   1.541       .  S
C253        C258   1.541       .  S
C253        C449   1.468       .  S
C254        C262   1.374       .  A
C254        C257   1.393       .  A
C255        C266   1.374       .  A
C255        C258   1.393       .  A
C256        C270   1.374       .  A
C256        C259   1.393       .  A
C257        C260   1.385       .  A
C258        C264   1.385       .  A
C259        C267   1.385       .  A
C260        N261   1.361       .  A
C260        H273   1.082       .  S
N261        C262   1.355       .  A
N261        C438   1.408       .  S
C262        H263   1.083       .  S
C264        N265   1.361       .  A
C264        H274   1.082       .  S
N265        C266   1.355       .  A
N265        C439   1.408       .  S
C266        H272   1.083       .  S
C267        N268   1.361       .  A
C267        H269   1.082       .  S
N268        C270   1.355       .  A
N268        C442   1.408       .  S
C270        H271   1.083       .  S
C275        C277   1.529       .  S
C275        C279   1.529       .  S
C275        C278   1.529       .  S
C275        C433   1.468   1_556  S
C276        C280   1.542       .  S
C276        C282   1.541       .  S
C276        C281   1.541       .  S
C276        C429   1.468       .  S
C277        C285   1.374       .  A
C277        C280   1.393       .  A
C278        C289   1.374       .  A
C278        C281   1.393       .  A
C279        C293   1.374       .  A
C279        C282   1.393       .  A
C280        C283   1.385       .  A
C281        C287   1.385       .  A
C282        C290   1.385       .  A
C283        N284   1.361       .  A
C283        H296   1.082       .  S
N284        C285   1.355       .  A
N284        C427   1.408       .  S
C285        H286   1.083   1_556  S
C287        N288   1.361       .  A
C287        H297   1.082       .  S
N288        C289   1.355       .  A
N288        C425   1.408       .  S
C289        H295   1.083   1_556  S
C290        N291   1.361       .  A
C290        H292   1.082       .  S
N291        C293   1.355       .  A
N291        C424   1.408       .  S
C293        H294   1.083   1_556  S
C298        C300   1.542       .  S
C298        C302   1.541       .  S
C298        C301   1.541       .  S
C298        C436   1.468       .  S
C299        C303   1.529       .  S
C299        C305   1.529       .  S
C299        C304   1.529       .  S
C299        C432   1.468       .  S
C300        C308   1.385       .  A
C300        C303   1.393       .  A
C301        C312   1.385       .  A
C301        C304   1.393       .  A
C302        C316   1.385       .  A
C302        C305   1.393       .  A
C303        C306   1.374       .  A
C304        C310   1.374       .  A
C305        C313   1.374       .  A
C306        N307   1.355       .  A
C306        H319   1.083       .  S
N307        C308   1.361       .  A
N307        C421   1.408       .  S
C308        H309   1.082       .  S
C310        N311   1.355       .  A
C310        H320   1.083       .  S
N311        C312   1.361       .  A
N311        C418   1.408       .  S
C312        H318   1.082       .  S
C313        N314   1.355       .  A
C313        H315   1.083       .  S
N314        C316   1.361       .  A
N314        C420   1.408       .  S
C316        H317   1.082       .  S
O321       Mg323   2.151       .  S
C322        H361   1.081       .  S
C322        O335   1.237       .  S
C322        O359   1.271       .  A
Mg323       O808   2.155   1_454  S
Mg323       O367   2.325   1_554  S
Mg323       O819   2.281   1_455  S
Mg323       O790   2.301   1_455  S
O324       Mg822   2.155   1_454  S
O324       Mg349   2.151       .  S
O324        C801   1.237   1_455  S
O325        C356   1.271       .  A
O325       Mg349   2.301       .  S
C326        O328   1.273       .  A
C326        O340   1.276       .  A
C326        C426   1.444       .  S
O327        C355   1.271       .  A
O328       Mg360   2.281       .  S
Mg329       O335   2.151       .  S
Mg329       O331   2.325   1_556  S
C330        O368   1.273       .  A
C330        O336   1.276       .  A
C330        C444   1.444       .  S
O331        C338   1.276       .  A
H332        C801   1.081   1_455  S
C333        O348   1.271       .  A
O334        C357   1.271       .  A
O334       Mg779   2.301       .  S
O335       Mg349   2.155   1_556  S
O336       Mg366   2.325   1_554  S
C337        O350   1.273       .  A
C337        O342   1.276       .  A
C337        C423   1.444       .  S
C338        O365   1.273       .  A
C338        C447   1.444       .  S
Mg339       O346   2.151       .  S
Mg339       O340   2.325   1_554  S
O341        C345   1.271       .  A
O342       Mg349   2.325   1_556  S
O343        C362   1.273       .  A
O344        C364   1.276       .  A
O344       Mg360   2.325   1_554  S
C345        H788   1.081       .  S
C345        O780   1.237       .  S
O346       Mg360   2.155   1_554  S
O346        C357   1.237       .  S
O347       Mg366   2.151       .  S
O348       Mg360   2.301       .  S
Mg349       O365   2.281       .  S
O350       Mg822   2.281   1_455  S
O352       Mg779   2.155   1_556  S
O352       Mg360   2.151       .  S
O352        C811   1.237       .  S
H353        C811   1.081       .  S
H354        C357   1.081       .  S
C355        H809   1.081   1_455  S
C355        O808   1.237   1_455  S
O359       Mg822   2.301   1_455  S
C362        O367   1.276       .  A
C362        C428   1.444       .  S
O363        C364   1.273       .  A
O363       Mg779   2.281       .  S
C364        C445   1.444       .  S
Mg366       O780   2.155   1_556  S
Mg366       O806   2.281       .  S
Mg366       O815   2.301       .  S
O369       Mg371   2.151       .  S
O369       Mg833   2.155       .  S
O369        C860   1.237       .  S
C370        H409   1.082       .  S
C370        O383   1.237       .  S
C370        O407   1.271       .  A
Mg371       O415   2.325       .  S
O372       Mg397   2.151       .  S
O373        C404   1.271       .  A
O373       Mg397   2.301       .  S
C374        O376   1.273       .  A
C374        O388   1.276       .  A
C374        C440   1.444       .  S
O375        C403   1.271       .  A
O375       Mg833   2.301       .  S
O376       Mg408   2.281       .  S
Mg377       O825   2.155   1_455  S
Mg377       O383   2.151       .  S
Mg377       O831   2.301   1_455  S
Mg377       O847   2.281   1_455  S
Mg377       O379   2.325       .  S
C378        O416   1.273       .  A
C378        O384   1.276       .  A
C378        C422   1.444       .  S
O379        C386   1.276       .  A
C381        H862   1.081       .  S
C381        O851   1.237       .  S
C381        O396   1.271       .  A
O382        C405   1.271       .  A
O383       Mg397   2.155       .  S
O384       Mg414   2.325       .  S
C385        O398   1.273       .  A
C385        O390   1.276       .  A
C385        C441   1.444       .  S
C386        O413   1.273       .  A
C386        C417   1.444       .  S
Mg387       O394   2.151       .  S
Mg387       O851   2.155       .  S
Mg387       O388   2.325       .  S
Mg387       O845   2.301       .  S
Mg387       O872   2.281       .  S
O389        C393   1.271   1_565  A
O389       Mg843   2.301   1_455  S
O390       Mg397   2.325       .  S
O391        C410   1.273       .  A
O391       Mg833   2.281       .  S
O392        C412   1.276       .  A
O392       Mg408   2.325       .  S
O394       Mg408   2.155       .  S
O394        C405   1.237       .  S
O395       Mg843   2.155   1_455  S
O395       Mg414   2.151       .  S
O395        C837   1.237   1_455  S
O396       Mg408   2.301       .  S
Mg397       O413   2.281       .  S
H399        C860   1.081       .  S
O400       Mg408   2.151       .  S
H402        C405   1.082       .  S
C404        H855   1.081   1_455  S
C404        O825   1.237   1_455  S
H406        C837   1.081   1_455  S
C410        O415   1.276       .  A
C410        C437   1.444       .  S
O411        C412   1.273       .  A
C412        C419   1.444       .  S
O416       Mg843   2.281   1_455  S
C417        C418   1.211       .  T
C419        C420   1.211       .  T
C421        C422   1.211       .  T
C423        C424   1.211       .  T
C425        C426   1.211       .  T
C427        C428   1.211       .  T
C429        C430   1.206       .  T
C430        C431   1.411       .  S
C431        C432   1.205       .  T
C433        C434   1.205       .  T
C434        C435   1.411       .  S
C435        C436   1.206       .  T
C437        C438   1.211       .  T
C439        C440   1.211       .  T
C441        C442   1.211       .  T
C443        C444   1.211       .  T
C445        C446   1.211       .  T
C447        C448   1.211       .  T
C449        C450   1.206       .  T
C450        C451   1.411       .  S
C451        C452   1.205       .  T
C453        C454   1.205       .  T
C454        C455   1.411       .  S
C455        C456   1.206       .  T
C457        C459   1.542       .  S
C457        C461   1.541       .  S
C457        C460   1.541       .  S
C457        C684   1.468       .  S
C458        C462   1.529       .  S
C458        C464   1.529       .  S
C458        C463   1.529       .  S
C458        C680   1.468   1_554  S
C459        C467   1.385       .  A
C459        C462   1.393       .  A
C460        C471   1.385       .  A
C460        C463   1.393       .  A
C461        C475   1.385       .  A
C461        C464   1.393       .  A
C462        C465   1.374       .  A
C463        C469   1.374       .  A
C464        C472   1.374       .  A
C465        N466   1.355       .  A
C465        H478   1.083   1_554  S
N466        C467   1.361       .  A
N466        C671   1.408       .  S
C467        H468   1.082       .  S
C469        N470   1.355       .  A
C469        H479   1.083   1_554  S
N470        C471   1.361       .  A
N470        C676   1.408       .  S
C471        H477   1.082       .  S
C472        N473   1.355       .  A
C472        H474   1.083   1_554  S
N473        C475   1.361       .  A
N473        C674   1.408       .  S
C475        H476   1.082       .  S
C480        C482   1.529       .  S
C480        C484   1.529       .  S
C480        C483   1.529       .  S
C480        C681   1.468       .  S
C481        C485   1.542       .  S
C481        C487   1.541       .  S
C481        C486   1.541       .  S
C481        C677   1.468       .  S
C482        C490   1.374       .  A
C482        C485   1.393       .  A
C483        C494   1.374       .  A
C483        C486   1.393       .  A
C484        C498   1.374       .  A
C484        C487   1.393       .  A
C485        C488   1.385       .  A
C486        C492   1.385       .  A
C487        C495   1.385       .  A
C488        N489   1.361       .  A
C488        H501   1.082       .  S
N489        C490   1.355       .  A
N489        C666   1.408       .  S
C490        H491   1.083       .  S
C492        N493   1.361       .  A
C492        H502   1.082       .  S
N493        C494   1.355       .  A
N493        C667   1.408       .  S
C494        H500   1.083       .  S
C495        N496   1.361       .  A
C495        H497   1.082       .  S
N496        C498   1.355       .  A
N496        C670   1.408       .  S
C498        H499   1.083       .  S
C503        C505   1.529       .  S
C503        C507   1.529       .  S
C503        C506   1.529       .  S
C503        C661   1.468   1_556  S
C504        C508   1.542       .  S
C504        C510   1.541       .  S
C504        C509   1.541       .  S
C504        C657   1.468       .  S
C505        C513   1.374       .  A
C505        C508   1.393       .  A
C506        C517   1.374       .  A
C506        C509   1.393       .  A
C507        C521   1.374       .  A
C507        C510   1.393       .  A
C508        C511   1.385       .  A
C509        C515   1.385       .  A
C510        C518   1.385       .  A
C511        N512   1.361       .  A
C511        H524   1.082       .  S
N512        C513   1.355       .  A
N512        C655   1.408       .  S
C513        H514   1.083   1_556  S
C515        N516   1.361       .  A
C515        H525   1.082       .  S
N516        C517   1.355       .  A
N516        C653   1.408       .  S
C517        H523   1.083   1_556  S
C518        N519   1.361       .  A
C518        H520   1.082       .  S
N519        C521   1.355       .  A
N519        C652   1.408       .  S
C521        H522   1.083   1_556  S
C526        C528   1.542       .  S
C526        C530   1.541       .  S
C526        C529   1.541       .  S
C526        C664   1.468       .  S
C527        C531   1.529       .  S
C527        C533   1.529       .  S
C527        C532   1.529       .  S
C527        C660   1.468       .  S
C528        C536   1.385       .  A
C528        C531   1.393       .  A
C529        C540   1.385       .  A
C529        C532   1.393       .  A
C530        C544   1.385       .  A
C530        C533   1.393       .  A
C531        C534   1.374       .  A
C532        C538   1.374       .  A
C533        C541   1.374       .  A
C534        N535   1.355       .  A
C534        H547   1.083       .  S
N535        C536   1.361       .  A
N535        C649   1.408       .  S
C536        H537   1.082       .  S
C538        N539   1.355       .  A
C538        H548   1.083       .  S
N539        C540   1.361       .  A
N539        C646   1.408       .  S
C540        H546   1.082       .  S
C541        N542   1.355       .  A
C541        H543   1.083       .  S
N542        C544   1.361       .  A
N542        C648   1.408       .  S
C544        H545   1.082       .  S
O549       Mg551   2.151       .  S
O549       Mg785   2.155   1_554  S
O549        C812   1.237       .  S
C550        H589   1.081       .  S
C550        O563   1.237       .  S
C550        O587   1.271       .  A
Mg551       O595   2.325   1_554  S
O552       Mg577   2.151       .  S
O553        C584   1.271       .  A
O553       Mg577   2.301       .  S
C554        O556   1.273       .  A
C554        O568   1.276       .  A
C554        C654   1.444       .  S
O555        C583   1.271       .  A
O555       Mg785   2.301       .  S
O556       Mg588   2.281       .  S
Mg557       O777   2.155   1_546  S
Mg557       O563   2.151       .  S
Mg557       O783   2.301   1_545  S
Mg557       O799   2.281   1_545  S
Mg557       O559   2.325   1_556  S
C558        O596   1.273       .  A
C558        O564   1.276       .  A
C558        C672   1.444       .  S
O559        C566   1.276       .  A
C561        H814   1.081       .  S
C561        O803   1.237       .  S
C561        O576   1.271       .  A
O562        C585   1.271       .  A
O563       Mg577   2.155   1_556  S
O564       Mg594   2.325   1_554  S
C565        O578   1.273       .  A
C565        O570   1.276       .  A
C565        C651   1.444       .  S
C566        O593   1.273       .  A
C566        C675   1.444       .  S
Mg567       O574   2.151       .  S
Mg567       O803   2.155   1_554  S
Mg567       O568   2.325   1_554  S
Mg567       O797   2.301       .  S
Mg567       O824   2.281       .  S
O569        C573   1.271       .  A
O569       Mg795   2.301   1_545  S
O570       Mg577   2.325   1_556  S
O571        C590   1.273       .  A
O571       Mg785   2.281       .  S
O572        C592   1.276       .  A
O572       Mg588   2.325   1_554  S
O574       Mg588   2.155   1_554  S
O574        C585   1.237       .  S
O575       Mg795   2.155   1_546  S
O575       Mg594   2.151       .  S
O575        C789   1.237   1_545  S
O576       Mg588   2.301       .  S
Mg577       O593   2.281       .  S
H579        C812   1.081       .  S
O580       Mg588   2.151       .  S
H582        C585   1.081       .  S
C584        H807   1.081   1_545  S
C584        O777   1.237   1_545  S
H586        C789   1.081   1_545  S
C590        O595   1.276       .  A
C590        C656   1.444       .  S
O591        C592   1.273       .  A
C592        C673   1.444       .  S
O596       Mg795   2.281   1_545  S
O597       Mg599   2.151       .  S
C598        H637   1.082       .  S
C598        O611   1.237       .  S
C598        O635   1.271       .  A
Mg599       O856   2.155   1_545  S
Mg599       O643   2.325       .  S
Mg599       O867   2.281   1_545  S
Mg599       O838   2.301   1_545  S
O600       Mg870   2.155   1_545  S
O600       Mg625   2.151       .  S
O600        C849   1.237       .  S
O601        C632   1.271       .  A
O601       Mg625   2.301       .  S
C602        O604   1.273       .  A
C602        O616   1.276       .  A
C602        C668   1.444       .  S
O603        C631   1.271       .  A
O604       Mg636   2.281       .  S
Mg605       O611   2.151       .  S
Mg605       O607   2.325       .  S
C606        O644   1.273       .  A
C606        O612   1.276       .  A
C606        C650   1.444       .  S
O607        C614   1.276       .  A
H608        C849   1.081       .  S
C609        O624   1.271       .  A
O610        C633   1.271       .  A
O610       Mg827   2.301       .  S
O611       Mg625   2.155       .  S
O612       Mg642   2.325       .  S
C613        O626   1.273       .  A
C613        O618   1.276       .  A
C613        C669   1.444       .  S
C614        O641   1.273       .  A
C614        C645   1.444       .  S
Mg615       O622   2.151       .  S
Mg615       O616   2.325       .  S
O617        C621   1.271       .  A
O618       Mg625   2.325       .  S
O619        C638   1.273       .  A
O620        C640   1.276       .  A
O620       Mg636   2.325       .  S
C621        H836   1.081       .  S
C621        O828   1.237       .  S
O622       Mg636   2.155       .  S
O622        C633   1.237       .  S
O623       Mg642   2.151       .  S
O624       Mg636   2.301       .  S
Mg625       O641   2.281       .  S
O626       Mg870   2.281   1_545  S
O628       Mg827   2.155       .  S
O628       Mg636   2.151       .  S
O628        C859   1.237       .  S
H629        C859   1.081       .  S
H630        C633   1.082       .  S
C631        H857   1.081   1_545  S
C631        O856   1.237   1_545  S
O635       Mg870   2.301   1_545  S
C638        O643   1.276       .  A
C638        C665   1.444       .  S
O639        C640   1.273       .  A
O639       Mg827   2.281       .  S
C640        C647   1.444       .  S
Mg642       O828   2.155       .  S
Mg642       O854   2.281       .  S
Mg642       O863   2.301       .  S
C645        C646   1.211       .  T
C647        C648   1.211       .  T
C649        C650   1.211       .  T
C651        C652   1.211       .  T
C653        C654   1.211       .  T
C655        C656   1.211       .  T
C657        C658   1.206       .  T
C658        C659   1.411       .  S
C659        C660   1.205       .  T
C661        C662   1.205       .  T
C662        C663   1.411       .  S
C663        C664   1.206       .  T
C665        C666   1.211       .  T
C667        C668   1.211       .  T
C669        C670   1.211       .  T
C671        C672   1.211       .  T
C673        C674   1.211       .  T
C675        C676   1.211       .  T
C677        C678   1.206       .  T
C678        C679   1.411       .  S
C679        C680   1.205       .  T
C681        C682   1.205       .  T
C682        C683   1.411       .  S
C683        C684   1.206       .  T
C685        C687   1.542       .  S
C685        C689   1.541       .  S
C685        C688   1.541       .  S
C685        C912   1.468       .  S
C686        C690   1.529       .  S
C686        C692   1.529       .  S
C686        C691   1.529       .  S
C686        C908   1.468   1_554  S
C687        C695   1.385       .  A
C687        C690   1.393       .  A
C688        C699   1.385       .  A
C688        C691   1.393       .  A
C689        C703   1.385       .  A
C689        C692   1.393       .  A
C690        C693   1.374       .  A
C691        C697   1.374       .  A
C692        C700   1.374       .  A
C693        N694   1.355       .  A
C693        H706   1.083   1_554  S
N694        C695   1.361       .  A
N694        C899   1.408       .  S
C695        H696   1.082       .  S
C697        N698   1.355       .  A
C697        H707   1.083   1_554  S
N698        C699   1.361       .  A
N698        C904   1.408       .  S
C699        H705   1.082       .  S
C700        N701   1.355       .  A
C700        H702   1.083   1_554  S
N701        C703   1.361       .  A
N701        C902   1.408       .  S
C703        H704   1.082       .  S
C708        C710   1.529       .  S
C708        C712   1.529       .  S
C708        C711   1.529       .  S
C708        C909   1.468       .  S
C709        C713   1.542       .  S
C709        C715   1.541       .  S
C709        C714   1.541       .  S
C709        C905   1.468       .  S
C710        C718   1.374       .  A
C710        C713   1.393       .  A
C711        C722   1.374       .  A
C711        C714   1.393       .  A
C712        C726   1.374       .  A
C712        C715   1.393       .  A
C713        C716   1.385       .  A
C714        C720   1.385       .  A
C715        C723   1.385       .  A
C716        N717   1.361       .  A
C716        H729   1.082       .  S
N717        C718   1.355       .  A
N717        C894   1.408       .  S
C718        H719   1.083       .  S
C720        N721   1.361       .  A
C720        H730   1.082       .  S
N721        C722   1.355       .  A
N721        C895   1.408       .  S
C722        H728   1.083       .  S
C723        N724   1.361       .  A
C723        H725   1.082       .  S
N724        C726   1.355       .  A
N724        C898   1.408       .  S
C726        H727   1.083       .  S
C731        C733   1.529       .  S
C731        C735   1.529       .  S
C731        C734   1.529       .  S
C731        C889   1.468   1_556  S
C732        C736   1.542       .  S
C732        C738   1.541       .  S
C732        C737   1.541       .  S
C732        C885   1.468       .  S
C733        C741   1.374       .  A
C733        C736   1.393       .  A
C734        C745   1.374       .  A
C734        C737   1.393       .  A
C735        C749   1.374       .  A
C735        C738   1.393       .  A
C736        C739   1.385       .  A
C737        C743   1.385       .  A
C738        C746   1.385       .  A
C739        N740   1.361       .  A
C739        H752   1.082       .  S
N740        C741   1.355       .  A
N740        C883   1.408       .  S
C741        H742   1.083   1_556  S
C743        N744   1.361       .  A
C743        H753   1.082       .  S
N744        C745   1.355       .  A
N744        C881   1.408       .  S
C745        H751   1.083   1_556  S
C746        N747   1.361       .  A
C746        H748   1.082       .  S
N747        C749   1.355       .  A
N747        C880   1.408       .  S
C749        H750   1.083   1_556  S
C754        C756   1.542       .  S
C754        C758   1.541       .  S
C754        C757   1.541       .  S
C754        C892   1.468       .  S
C755        C759   1.529       .  S
C755        C761   1.529       .  S
C755        C760   1.529       .  S
C755        C888   1.468       .  S
C756        C764   1.385       .  A
C756        C759   1.393       .  A
C757        C768   1.385       .  A
C757        C760   1.393       .  A
C758        C772   1.385       .  A
C758        C761   1.393       .  A
C759        C762   1.374       .  A
C760        C766   1.374       .  A
C761        C769   1.374       .  A
C762        N763   1.355       .  A
C762        H775   1.083       .  S
N763        C764   1.361       .  A
N763        C877   1.408       .  S
C764        H765   1.082       .  S
C766        N767   1.355       .  A
C766        H776   1.083       .  S
N767        C768   1.361       .  A
N767        C874   1.408       .  S
C768        H774   1.082       .  S
C769        N770   1.355       .  A
C769        H771   1.083       .  S
N770        C772   1.361       .  A
N770        C876   1.408       .  S
C772        H773   1.082       .  S
O777       Mg779   2.151       .  S
C778        H817   1.081       .  S
C778        O791   1.237       .  S
C778        O815   1.271       .  A
Mg779       O823   2.325   1_554  S
O780       Mg805   2.151       .  S
O781        C812   1.271       .  A
O781       Mg805   2.301       .  S
C782        O784   1.273       .  A
C782        O796   1.276       .  A
C782        C882   1.444       .  S
O783        C811   1.271       .  A
O784       Mg816   2.281       .  S
Mg785       O791   2.151       .  S
Mg785       O787   2.325   1_556  S
C786        O824   1.273       .  A
C786        O792   1.276       .  A
C786        C900   1.444       .  S
O787        C794   1.276       .  A
C789        O804   1.271       .  A
O790        C813   1.271       .  A
O791       Mg805   2.155   1_556  S
O792       Mg822   2.325   1_554  S
C793        O806   1.273       .  A
C793        O798   1.276       .  A
C793        C879   1.444       .  S
C794        O821   1.273       .  A
C794        C903   1.444       .  S
Mg795       O802   2.151       .  S
Mg795       O796   2.325   1_554  S
O797        C801   1.271       .  A
O798       Mg805   2.325   1_556  S
O799        C818   1.273       .  A
O800        C820   1.276       .  A
O800       Mg816   2.325   1_554  S
O802       Mg816   2.155   1_554  S
O802        C813   1.237       .  S
O803       Mg822   2.151       .  S
O804       Mg816   2.301       .  S
Mg805       O821   2.281       .  S
O808       Mg816   2.151       .  S
H810        C813   1.081       .  S
C818        O823   1.276       .  A
C818        C884   1.444       .  S
O819        C820   1.273       .  A
C820        C901   1.444       .  S
O825       Mg827   2.151       .  S
C826        H865   1.082       .  S
C826        O839   1.237       .  S
C826        O863   1.271       .  A
Mg827       O871   2.325       .  S
O828       Mg853   2.151       .  S
O829        C860   1.271       .  A
O829       Mg853   2.301       .  S
C830        O832   1.273       .  A
C830        O844   1.276       .  A
C830        C896   1.444       .  S
O831        C859   1.271       .  A
O832       Mg864   2.281       .  S
Mg833       O839   2.151       .  S
Mg833       O835   2.325       .  S
C834        O872   1.273       .  A
C834        O840   1.276       .  A
C834        C878   1.444       .  S
O835        C842   1.276       .  A
C837        O852   1.271       .  A
O838        C861   1.271       .  A
O839       Mg853   2.155       .  S
O840       Mg870   2.325       .  S
C841        O854   1.273       .  A
C841        O846   1.276       .  A
C841        C897   1.444       .  S
C842        O869   1.273       .  A
C842        C873   1.444       .  S
Mg843       O850   2.151       .  S
Mg843       O844   2.325       .  S
O845        C849   1.271   1_565  A
O846       Mg853   2.325       .  S
O847        C866   1.273       .  A
O848        C868   1.276       .  A
O848       Mg864   2.325       .  S
O850       Mg864   2.155       .  S
O850        C861   1.237       .  S
O851       Mg870   2.151       .  S
O852       Mg864   2.301       .  S
Mg853       O869   2.281       .  S
O856       Mg864   2.151       .  S
H858        C861   1.082       .  S
C866        O871   1.276       .  A
C866        C893   1.444       .  S
O867        C868   1.273       .  A
C868        C875   1.444       .  S
C873        C874   1.211       .  T
C875        C876   1.211       .  T
C877        C878   1.211       .  T
C879        C880   1.211       .  T
C881        C882   1.211       .  T
C883        C884   1.211       .  T
C885        C886   1.206       .  T
C886        C887   1.411       .  S
C887        C888   1.205       .  T
C889        C890   1.205       .  T
C890        C891   1.411       .  S
C891        C892   1.206       .  T
C893        C894   1.211       .  T
C895        C896   1.211       .  T
C897        C898   1.211       .  T
C899        C900   1.211       .  T
C901        C902   1.211       .  T
C903        C904   1.211       .  T
C905        C906   1.206       .  T
C906        C907   1.411       .  S
C907        C908   1.205       .  T
C909        C910   1.205       .  T
C910        C911   1.411       .  S
C911        C912   1.206       .  T
