geometry optimzed in LAMMPS
_audit_creation_date              2020-12-01 
_audit_creation_method            'lammps2cif' 
_symmetry_space_group_name_H-M    'P1' 
_symmetry_Int_Tables_number       1 
_symmetry_cell_setting            triclinic 
loop_ 
_symmetry_equiv_pos_as_xyz 
  x,y,z 
_cell_length_a                    65.0757792 
_cell_length_b                    65.11361126004753 
_cell_length_c                    65.08000727028275 
_cell_angle_alpha                 89.94060229114388 
_cell_angle_beta                  89.89117260018794 
_cell_angle_gamma                 89.91676992307931 
loop_ 
_atom_site_label 
_atom_site_type_symbol 
_atom_site_fract_x 
_atom_site_fract_y 
_atom_site_fract_z 
_atom_site_charge 
N1          N  0.78086917  0.20398796  0.44120800    -0.02300
C2          C  0.78457186  0.19116368  0.42526175     0.00300
C3          C  0.79361564  0.17327167  0.43213976    -0.22600
C4          C  0.79542088  0.17511621  0.45310908    -0.22800
C5          C  0.78751193  0.19418036  0.45840669     0.00200
H6          H  0.79873968  0.16046289  0.42285763     0.13900
H7          H  0.80261481  0.16406435  0.46323661     0.14000
N8          N  0.74392616  0.28303503  0.43907523    -0.02300
C9          C  0.74530093  0.29761214  0.42425711     0.00300
C10         C  0.73798831  0.31619514  0.43144756    -0.22600
C11         C  0.73192982  0.31295436  0.45146975    -0.22800
C12         C  0.73576707  0.29251998  0.45574441     0.00200
H13         H  0.73657132  0.33036109  0.42285159     0.13900
H14         H  0.72530636  0.32421840  0.46175869     0.14000
N15         N  0.72132997  0.26716291  0.55564820    -0.02300
C16         C  0.70887693  0.27237092  0.57158964     0.00300
C17         C  0.69146302  0.28214082  0.56439457    -0.22600
C18         C  0.69324169  0.28300099  0.54338395    -0.22800
C19         C  0.71181350  0.27390248  0.53829264     0.00200
H20         H  0.67889124  0.28817618  0.57348346     0.13900
H21         H  0.68246726  0.29024525  0.53299658     0.14000
N22         N  0.80000645  0.22876535  0.55626414    -0.02300
C23         C  0.81453591  0.22856989  0.57122363     0.00300
C24         C  0.83283838  0.22080452  0.56373698    -0.22600
C25         C  0.82946963  0.21579752  0.54350962    -0.22800
C26         C  0.80927586  0.22079933  0.53932991     0.00200
H27         H  0.84680237  0.21812121  0.57234418     0.13900
H28         H  0.84036177  0.20867825  0.53313293     0.14000
N29         N  0.72021740  0.22374496  0.93996710    -0.02300
C30         C  0.70811258  0.21837446  0.92392824     0.00300
C31         C  0.69081996  0.20823814  0.93084788    -0.22600
C32         C  0.69229965  0.20740056  0.95189882    -0.22800
C33         C  0.71059105  0.21686869  0.95718947     0.00200
H34         H  0.67851885  0.20204153  0.92157279     0.13900
H35         H  0.68149436  0.20004486  0.96219382     0.14000
N36         N  0.79764676  0.26426636  0.93921792    -0.02300
C37         C  0.81257286  0.26324922  0.92460854     0.00300
C38         C  0.83066822  0.27159312  0.93184896    -0.22600
C39         C  0.82683332  0.27800385  0.95160502    -0.22800
C40         C  0.80657226  0.27326657  0.95578833     0.00200
H41         H  0.84493623  0.27334104  0.92346207     0.13900
H42         H  0.83762994  0.28538733  0.96183284     0.14000
N43         N  0.74091940  0.20991307  0.05721085    -0.02300
C44         C  0.74155909  0.19527596  0.07210186     0.00300
C45         C  0.73397202  0.17688563  0.06479950    -0.22600
C46         C  0.72848507  0.18019382  0.04469796    -0.22800
C47         C  0.73293498  0.20047603  0.04041723     0.00200
H48         H  0.73220703  0.16272323  0.07333698     0.13900
H49         H  0.72191021  0.16904038  0.03430254     0.14000
N50         N  0.77996847  0.28800203  0.05488313    -0.02300
C51         C  0.78452963  0.30003682  0.07118302     0.00300
C52         C  0.79461829  0.31753805  0.06483694    -0.22600
C53         C  0.79615242  0.31629889  0.04379044    -0.22800
C54         C  0.78701414  0.29797844  0.03792988     0.00200
H55         H  0.80051646  0.32969549  0.07448635     0.13900
H56         H  0.80392651  0.32722845  0.03395906     0.14000
N57         N  0.79518794  0.93268568  0.27138873    -0.02300
C58         C  0.80999660  0.91793296  0.27226035     0.00300
C59         C  0.82740563  0.92556480  0.28166938    -0.22600
C60         C  0.82323145  0.94564108  0.28678346    -0.22800
C61         C  0.80344669  0.94968852  0.28027342     0.00200
H62         H  0.84149131  0.91729340  0.28481387     0.13900
H63         H  0.83353372  0.95620321  0.29439622     0.14000
N64         N  0.72091916  0.93368401  0.22565079    -0.02300
C65         C  0.70905909  0.91792831  0.21901375     0.00300
C66         C  0.69215494  0.92546557  0.20861175    -0.22600
C67         C  0.69366957  0.94652231  0.20893797    -0.22800
C68         C  0.71148854  0.95125777  0.21951012     0.00200
H69         H  0.67999392  0.91661272  0.20158035     0.13900
H70         H  0.68321079  0.95719018  0.20163196     0.14000
N71         N  0.77972414  0.05067030  0.29139124    -0.02300
C72         C  0.78532755  0.06651847  0.30370580     0.00300
C73         C  0.79503557  0.05914279  0.32107141    -0.22600
C74         C  0.79541656  0.03808753  0.31938101    -0.22800
C75         C  0.78610013  0.03318542  0.30092146     0.00200
H76         H  0.80124613  0.06812103  0.33358463     0.13900
H77         H  0.80238301  0.02750974  0.33016043     0.14000
N78         N  0.74280121  0.05088384  0.21230606    -0.02300
C79         C  0.74288660  0.06534040  0.19718591     0.00300
C80         C  0.73618553  0.05693912  0.17889666    -0.22600
C81         C  0.73164135  0.03670599  0.18284711    -0.22800
C82         C  0.73583555  0.03337870  0.20336919     0.00200
H83         H  0.73424468  0.06484479  0.16439232     0.13900
H84         H  0.72563878  0.02565338  0.17200497     0.14000
O85         O  0.78673677  0.29001973  0.17010939    -0.70600
O86         O  0.78117713  0.29259647  0.22791619    -0.70900
O87         O  0.78119718  0.26223023  0.19993924    -0.70700
O88         O  0.78657279  0.32037799  0.19790090    -0.70700
O89         O  0.75344594  0.32349935  0.19559465    -0.70700
O90         O  0.74816462  0.26523978  0.19607320    -0.70700
O91         O  0.74798438  0.29475513  0.22487147    -0.70700
O92         O  0.75382782  0.29381695  0.16651841    -0.70800
V93         V  0.78324681  0.29136725  0.19892006     1.35200
V94         V  0.75147055  0.29427629  0.19580028     1.35200
C95         C  0.77139973  0.29162435  0.15835906     0.78600
C96         C  0.76370034  0.29392551  0.23625931     0.78700
C97         C  0.76377008  0.25384772  0.19822097     0.78500
C98         C  0.77094494  0.33190103  0.19657004     0.78500
O99         O  0.77371497  0.32474369  0.29866895    -0.70600
O100        O  0.77853010  0.26648304  0.29873728    -0.70900
O101        O  0.77790839  0.29562962  0.26966011    -0.70700
O102        O  0.77434535  0.29548569  0.32790508    -0.70700
O103        O  0.74118319  0.29246718  0.32584224    -0.70700
O104        O  0.74467863  0.29308471  0.26750966    -0.70700
O105        O  0.74532031  0.26370464  0.29672905    -0.70700
O106        O  0.74054756  0.32209814  0.29651316    -0.70800
V107        V  0.77546347  0.29554781  0.29870617     1.35200
V108        V  0.74356561  0.29292895  0.29671794     1.35200
C109        C  0.75634661  0.33341137  0.29733246     0.78600
C110        C  0.76277121  0.25518392  0.29774474     0.78700
C111        C  0.76195580  0.29430456  0.25870015     0.78500
C112        C  0.75716683  0.29366541  0.33682161     0.78500
O113        O  0.77188642  0.16171475  0.19643628    -0.70600
O114        O  0.77736674  0.21992759  0.19714599    -0.70900
O115        O  0.77750413  0.19032529  0.22581520    -0.70700
O116        O  0.77182180  0.19157895  0.16772263    -0.70700
O117        O  0.73874777  0.19463641  0.17105632    -0.70700
O118        O  0.74443131  0.19361778  0.22925066    -0.70700
O119        O  0.74423596  0.22305081  0.20009143    -0.70700
O120        O  0.73888193  0.16481507  0.20041551    -0.70800
V121        V  0.77398722  0.19090190  0.19684606     1.35200
V122        V  0.74220605  0.19390777  0.20011281     1.35200
C123        C  0.75448964  0.15332355  0.19863856     0.78600
C124        C  0.76171297  0.23137622  0.19855284     0.78700
C125        C  0.76197922  0.19199342  0.23739753     0.78500
C126        C  0.75438209  0.19381166  0.15947446     0.78500
O127        O  0.75523698  0.16284298  0.30103087    -0.70600
O128        O  0.74926135  0.22119485  0.29995933    -0.70900
O129        O  0.74893925  0.19122860  0.27156137    -0.70700
O130        O  0.75551041  0.19310890  0.32967305    -0.70700
O131        O  0.78841914  0.19648922  0.32564840    -0.70700
O132        O  0.78199341  0.19416144  0.26774353    -0.70700
O133        O  0.78227535  0.22434568  0.29604047    -0.70700
O134        O  0.78818720  0.16627630  0.29740000    -0.70800
V135        V  0.75286383  0.19212310  0.30050815     1.35200
V136        V  0.78455388  0.19523925  0.29678657     1.35200
C137        C  0.77277864  0.15456318  0.29916118     0.78600
C138        C  0.76480781  0.23266994  0.29787387     0.78700
C139        C  0.76438098  0.19239094  0.25980019     0.78500
C140        C  0.77311296  0.19542747  0.33759920     0.78500
N141        N  0.77696957  0.43511419  0.20345737    -0.02300
C142        C  0.78043307  0.42019858  0.18934398     0.00300
C143        C  0.78804586  0.42892839  0.17147899    -0.22600
C144        C  0.78942385  0.44978968  0.17492116    -0.22800
C145        C  0.78269894  0.45314991  0.19479190     0.00200
H146        H  0.79265006  0.42094916  0.15763442     0.13900
H147        H  0.79581961  0.46107653  0.16451164     0.14000
N148        N  0.74641280  0.43613679  0.28480642    -0.02300
C149        C  0.74851226  0.42196692  0.30000226     0.00300
C150        C  0.74448725  0.43070547  0.31886930    -0.22600
C151        C  0.73957375  0.45092669  0.31518827    -0.22800
C152        C  0.74082126  0.45404754  0.29413287     0.00200
H153        H  0.74426145  0.42299585  0.33360694     0.13900
H154        H  0.73488006  0.46203190  0.32664143     0.14000
N155        N  0.80174037  0.54871564  0.23071772    -0.02300
C156        C  0.81592669  0.56368862  0.22795207     0.00300
C157        C  0.83391260  0.55528165  0.22034318    -0.22600
C158        C  0.83057966  0.53446480  0.21837288    -0.22800
C159        C  0.81058131  0.53085295  0.22461438     0.00200
H160        H  0.84772032  0.56348996  0.21605396     0.13900
H161        H  0.84115577  0.52338966  0.21186562     0.14000
N162        N  0.71850438  0.54858940  0.25596796    -0.02300
C163        C  0.70370307  0.56298736  0.25272086     0.00300
C164        C  0.68448439  0.55417457  0.25379052    -0.22600
C165        C  0.68749662  0.53375499  0.25824791    -0.22800
C166        C  0.70853348  0.53057552  0.25988458     0.00200
H167        H  0.66983232  0.56187887  0.25214463     0.13900
H168        H  0.67546749  0.52251558  0.26048171     0.14000
O169        O  0.68570996  0.78924086  0.21565911    -0.70600
O170        O  0.74366487  0.78993546  0.22406832    -0.70900
O171        O  0.71453952  0.76059094  0.22263486    -0.70700
O172        O  0.71487261  0.81845067  0.21677373    -0.70700
O173        O  0.71060430  0.82207630  0.24964306    -0.70700
O174        O  0.70926432  0.76370997  0.25547144    -0.70700
O175        O  0.73853934  0.79259408  0.25697517    -0.70700
O176        O  0.68095135  0.79304084  0.24843256    -0.70800
V177        V  0.71459863  0.78961367  0.22042977     1.35200
V178        V  0.70990451  0.79281080  0.25199158     1.35200
C179        C  0.67340620  0.79099199  0.23066275     0.78600
C180        C  0.75088563  0.79133683  0.24205283     0.78700
C181        C  0.71180053  0.75226753  0.23995463     0.78500
C182        C  0.71308461  0.83020571  0.23210995     0.78500
O183        O  0.81145948  0.66004448  0.25570749    -0.70600
O184        O  0.81230327  0.71823475  0.26239679    -0.70900
O185        O  0.78272341  0.68948777  0.25952400    -0.70700
O186        O  0.84123007  0.68881122  0.25860234    -0.70700
O187        O  0.84064130  0.69440558  0.22569064    -0.70700
O188        O  0.78229987  0.69185451  0.22621492    -0.70700
O189        O  0.81057932  0.72200768  0.22926056    -0.70700
O190        O  0.81251303  0.66400959  0.22263296    -0.70800
V191        V  0.81193244  0.68921339  0.25843473     1.35200
V192        V  0.81151131  0.69295370  0.22659779     1.35200
C193        C  0.81186457  0.65205381  0.23797482     0.78600
C194        C  0.81154149  0.73000365  0.24692203     0.78700
C195        C  0.77258001  0.69046545  0.24299396     0.78500
C196        C  0.85087263  0.69214300  0.24203030     0.78500
O197        O  0.70975393  0.66060429  0.22916755    -0.70600
O198        O  0.71117909  0.71881773  0.22569052    -0.70900
O199        O  0.73976891  0.68916247  0.22687218    -0.70700
O200        O  0.68126098  0.69045365  0.22807954    -0.70700
O201        O  0.68206222  0.69252337  0.26137627    -0.70700
O202        O  0.74039249  0.69119635  0.26019733    -0.70700
O203        O  0.71161641  0.72094380  0.25901407    -0.70700
O204        O  0.71084485  0.66243650  0.26246030    -0.70800
V205        V  0.71052380  0.68977675  0.22810811     1.35200
V206        V  0.71121091  0.69168789  0.26011708     1.35200
C207        C  0.71003539  0.65154161  0.24636116     0.78600
C208        C  0.71151679  0.72978314  0.24169989     0.78700
C209        C  0.75001083  0.69019580  0.24334504     0.78500
C210        C  0.67170701  0.69194654  0.24496400     0.78500
O211        O  0.83704316  0.79029400  0.27479752    -0.70600
O212        O  0.77977195  0.78927456  0.26392878    -0.70900
O213        O  0.80948006  0.76071265  0.26672280    -0.70700
O214        O  0.80691366  0.81890944  0.27202511    -0.70700
O215        O  0.81472960  0.82228496  0.23974216    -0.70700
O216        O  0.81421663  0.76402592  0.23382506    -0.70700
O217        O  0.78582804  0.79375412  0.23136958    -0.70700
O218        O  0.84331567  0.79221023  0.24211285    -0.70800
V219        V  0.80847291  0.78988119  0.26873893     1.35200
V220        V  0.81443942  0.79304089  0.23738877     1.35200
C221        C  0.85003388  0.79094894  0.26031616     0.78600
C222        C  0.77306155  0.79144881  0.24585186     0.78700
C223        C  0.81178489  0.75247496  0.24928164     0.78500
C224        C  0.81031860  0.83053826  0.25681028     0.78500
N225        N  0.45280312  0.76305280  0.21100959    -0.02300
C226        C  0.43836256  0.76393485  0.19600245     0.00300
C227        C  0.44632493  0.77308555  0.17855764    -0.22600
C228        C  0.46634961  0.77809068  0.18296028    -0.22800
C229        C  0.46994151  0.77171582  0.20287605     0.00200
H230        H  0.43825674  0.77630473  0.16438707     0.13900
H231        H  0.47711421  0.78569474  0.17280467     0.14000
N232        N  0.45348159  0.71628349  0.28467798    -0.02300
C233        C  0.43789677  0.71031869  0.29717303     0.00300
C234        C  0.44549270  0.69864254  0.31320777    -0.22600
C235        C  0.46642324  0.69744706  0.31046380    -0.22800
C236        C  0.47099758  0.70837677  0.29278131     0.00200
H237        H  0.43674652  0.69164918  0.32551621     0.13900
H238        H  0.47705733  0.68893003  0.31999568     0.14000
N239        N  0.56932611  0.70272668  0.25698274    -0.02300
C240        C  0.58392815  0.68804835  0.25439458     0.00300
C241        C  0.57603642  0.66884076  0.25870999    -0.22600
C242        C  0.55580716  0.67173900  0.26414082    -0.22800
C243        C  0.55205077  0.69259230  0.26286633     0.00200
H244        H  0.58426740  0.65438805  0.25852120     0.13900
H245        H  0.54505801  0.65996054  0.26883879     0.14000
N246        N  0.56974211  0.78429176  0.22584806    -0.02300
C247        C  0.58552524  0.79648458  0.21983550     0.00300
C248        C  0.57814066  0.81415871  0.21075330    -0.22600
C249        C  0.55706142  0.81280592  0.21121713    -0.22800
C250        C  0.55220269  0.79426814  0.22050941     0.00200
H251        H  0.58711439  0.82662125  0.20438289     0.13900
H252        H  0.54645606  0.82381352  0.20466390     0.14000
N253        N  0.95327450  0.70483759  0.23184420    -0.02300
C254        C  0.93861160  0.68997257  0.23192141     0.00300
C255        C  0.94634958  0.67194094  0.22379316    -0.22600
C256        C  0.96642084  0.67576376  0.21846552    -0.22800
C257        C  0.97027217  0.69598425  0.22350094     0.00200
H258        H  0.93809120  0.65772841  0.22141399     0.13900
H259        H  0.97704608  0.66501930  0.21149701     0.14000
N260        N  0.95323329  0.78269088  0.27150504    -0.02300
C261        C  0.93715668  0.79481603  0.27692071     0.00300
C262        C  0.94400882  0.81187826  0.28741949    -0.22600
C263        C  0.96504959  0.81023286  0.28843989    -0.22800
C264        C  0.97041454  0.79207574  0.27871057     0.00200
H265        H  0.93471002  0.82419930  0.29362368     0.13900
H266        H  0.97529965  0.82089416  0.29598614     0.14000
N267        N  0.07005579  0.72025957  0.20905777    -0.02300
C268        C  0.08576800  0.71558873  0.19614643     0.00300
C269        C  0.07829595  0.70625664  0.17862560    -0.22600
C270        C  0.05728939  0.70534820  0.18074772    -0.22800
C271        C  0.05258882  0.71393539  0.19961807     0.00200
H272        H  0.08717765  0.70073203  0.16568121     0.13900
H273        H  0.04663900  0.69859721  0.16994457     0.14000
N274        N  0.07047303  0.76144648  0.28613213    -0.02300
C275        C  0.08553529  0.76200260  0.30051898     0.00300
C276        C  0.07854784  0.77126483  0.31828163    -0.22600
C277        C  0.05841273  0.77661207  0.31479721    -0.22800
C278        C  0.05382220  0.77039929  0.29504383     0.00200
H279        H  0.08735595  0.77440681  0.33200929     0.13900
H280        H  0.04825319  0.78441702  0.32541907     0.14000
N281        N  0.27247985  0.77829380  0.93717789    -0.02300
C282        C  0.27217562  0.79278753  0.92212938     0.00300
C283        C  0.28010450  0.81108672  0.92927618    -0.22600
C284        C  0.28552504  0.80782849  0.94942597    -0.22800
C285        C  0.28064316  0.78767971  0.95394535     0.00200
H286        H  0.28235446  0.82506859  0.92055768     0.13900
H287        H  0.29254129  0.81887801  0.95964224     0.14000
N288        N  0.23288694  0.70045398  0.93719903    -0.02300
C289        C  0.22739612  0.68840710  0.92107259     0.00300
C290        C  0.21721280  0.67116389  0.92810021    -0.22600
C291        C  0.21658182  0.67255780  0.94916705    -0.22800
C292        C  0.22622656  0.69073472  0.95447985     0.00200
H293        H  0.21113414  0.65874694  0.91890211     0.13900
H294        H  0.20953741  0.66158856  0.95949954     0.14000
N295        N  0.29702034  0.76573795  0.05453018    -0.02300
C296        C  0.30924295  0.77236221  0.07012536     0.00300
C297        C  0.32517639  0.78403288  0.06227682    -0.22600
C298        C  0.32264945  0.78467656  0.04134041    -0.22800
C299        C  0.30518761  0.77344947  0.03687641     0.00200
H300        H  0.33748101  0.79117946  0.07083333     0.13900
H301        H  0.33232515  0.79284171  0.03054333     0.14000
N302        N  0.22307421  0.71912295  0.05575543    -0.02300
C303        C  0.20924426  0.71749163  0.07135633     0.00300
C304        C  0.19175426  0.70748769  0.06484506    -0.22600
C305        C  0.19481285  0.70273273  0.04450271    -0.22800
C306        C  0.21404716  0.71004278  0.03925542     0.00200
H307        H  0.17844863  0.70360396  0.07405362     0.13900
H308        H  0.18421824  0.69465451  0.03459344     0.14000
O309        O  0.18579340  0.71509361  0.19919902    -0.70600
O310        O  0.24326636  0.72363175  0.19929681    -0.70900
O311        O  0.21385892  0.72221502  0.22830093    -0.70700
O312        O  0.21538682  0.71670417  0.17020166    -0.70700
O313        O  0.20904228  0.74928412  0.16693928    -0.70700
O314        O  0.21028420  0.75526245  0.22516716    -0.70700
O315        O  0.23858546  0.75642861  0.19504199    -0.70700
O316        O  0.18062190  0.74795902  0.19733265    -0.70800
V317        V  0.21445464  0.72007346  0.19919658     1.35200
V318        V  0.20970590  0.75162623  0.19614220     1.35200
C319        C  0.17332286  0.72997365  0.19866700     0.78600
C320        C  0.25072689  0.74135200  0.19693330     0.78700
C321        C  0.21204216  0.73966959  0.23661857     0.78500
C322        C  0.21250061  0.73204697  0.15861943     0.78500
O323        O  0.31196465  0.73617263  0.16453730    -0.70600
O324        O  0.31448932  0.72621606  0.22237883    -0.70900
O325        O  0.28450472  0.72841727  0.19439993    -0.70700
O326        O  0.34249574  0.73392191  0.19262009    -0.70700
O327        O  0.33951027  0.76624458  0.20033917    -0.70700
O328        O  0.28127318  0.76143286  0.19819444    -0.70700
O329        O  0.30990672  0.75882525  0.22785135    -0.70700
O330        O  0.31080731  0.76894450  0.17036800    -0.70800
V331        V  0.31336275  0.73180906  0.19356097     1.35200
V332        V  0.31046358  0.76324044  0.19903931     1.35200
C333        C  0.31080318  0.75431521  0.15756417     0.78600
C334        C  0.31216405  0.74088194  0.23493136     0.78700
C335        C  0.27304336  0.74395255  0.19642058     0.78500
C336        C  0.35091474  0.75089716  0.19680025     0.78500
O337        O  0.18427389  0.76352025  0.29674684    -0.70600
O338        O  0.24238892  0.75788032  0.29725612    -0.70900
O339        O  0.21332657  0.75882896  0.26787548    -0.70700
O340        O  0.21331672  0.76228981  0.32649465    -0.70700
O341        O  0.20970349  0.72918994  0.32828012    -0.70700
O342        O  0.21027214  0.72566551  0.27012534    -0.70700
O343        O  0.23907725  0.72472274  0.29925959    -0.70700
O344        O  0.18094668  0.73039876  0.29889971    -0.70800
V345        V  0.21325714  0.76000855  0.29718142     1.35200
V346        V  0.21008686  0.72816438  0.29913443     1.35200
C347        C  0.17270529  0.74794906  0.29753896     0.78600
C348        C  0.25059291  0.74030638  0.29797247     0.78700
C349        C  0.21187214  0.74154741  0.25909876     0.78500
C350        C  0.21128314  0.74625132  0.33737304     0.78500
O351        O  0.31369998  0.74617450  0.32706165    -0.70600
O352        O  0.31396519  0.75276203  0.26918915    -0.70900
O353        O  0.28490527  0.75312958  0.29858879    -0.70700
O354        O  0.34309761  0.74532888  0.29750797    -0.70700
O355        O  0.33834029  0.71254617  0.29408069    -0.70700
O356        O  0.28071554  0.72024339  0.29476078    -0.70700
O357        O  0.30996215  0.71988767  0.26515352    -0.70700
O358        O  0.30918957  0.71335749  0.32352815    -0.70800
V359        V  0.31387542  0.74870551  0.29801583     1.35200
V360        V  0.30964766  0.71715316  0.29443635     1.35200
C361        C  0.31099405  0.72877984  0.33525225     0.78600
C362        C  0.31207744  0.73757484  0.25730139     0.78700
C363        C  0.27297375  0.73786744  0.29708875     0.78500
C364        C  0.35063212  0.72747530  0.29546263     0.78500
N365        N  0.24996869  0.78107204  0.55248742    -0.02300
C366        C  0.25259475  0.79631233  0.56651010     0.00300
C367        C  0.24966015  0.81525884  0.55748915    -0.22600
C368        C  0.24477736  0.81160745  0.53729777    -0.22800
C369        C  0.24491268  0.79049268  0.53444106     0.00200
H370        H  0.24993643  0.83007094  0.56500900     0.13900
H371        H  0.24063777  0.82316187  0.52607067     0.14000
N372        N  0.28240465  0.70045292  0.55418271    -0.02300
C373        C  0.28783520  0.68703126  0.56915811     0.00300
C374        C  0.29748423  0.67014528  0.56057283    -0.22600
C375        C  0.29809486  0.67344660  0.53965008    -0.22800
C376        C  0.28896997  0.69231227  0.53618533     0.00200
H377        H  0.30389384  0.65712133  0.56869061     0.13900
H378        H  0.30554540  0.66376299  0.52836107     0.14000
N379        N  0.30174997  0.72659521  0.43897768    -0.02300
C380        C  0.31529699  0.72281379  0.42360404     0.00300
C381        C  0.33358411  0.71559937  0.43162939    -0.22600
C382        C  0.33109732  0.71482934  0.45263687    -0.22800
C383        C  0.31130402  0.72140600  0.45673493     0.00200
H384        H  0.34700890  0.71073147  0.42307803     0.13900
H385        H  0.34202099  0.70873886  0.46358982     0.14000
N386        N  0.21935519  0.75464141  0.44037815    -0.02300
C387        C  0.20448434  0.75215935  0.42596084     0.00300
C388        C  0.18529184  0.75425739  0.43474285    -0.22600
C389        C  0.18842669  0.75849477  0.45519294    -0.22800
C390        C  0.20950341  0.75888903  0.45840979     0.00200
H391        H  0.17061506  0.75347251  0.42699318     0.13900
H392        H  0.17649546  0.76136942  0.46643324     0.14000
O393        O  0.23549930  0.81688791  0.69409511    -0.70600
O394        O  0.24456311  0.75931760  0.69522966    -0.70900
O395        O  0.24035160  0.78883924  0.72393772    -0.70700
O396        O  0.23993039  0.78736724  0.66535651    -0.70700
O397        O  0.27260202  0.79407898  0.66499118    -0.70700
O398        O  0.27352704  0.79259442  0.72331704    -0.70700
O399        O  0.27753340  0.76438344  0.69362440    -0.70700
O400        O  0.26837669  0.82220776  0.69499352    -0.70800
V401        V  0.24072058  0.78821020  0.69463370     1.35200
V402        V  0.27237715  0.79320639  0.69420589     1.35200
C403        C  0.25029770  0.82943279  0.69473168     0.78600
C404        C  0.26255063  0.75203705  0.69455498     0.78700
C405        C  0.25712542  0.79074572  0.73355520     0.78500
C406        C  0.25619243  0.79071474  0.65518021     0.78500
O407        O  0.23571484  0.66243082  0.79074173    -0.70600
O408        O  0.23773601  0.72068349  0.79301117    -0.70900
O409        O  0.24260960  0.69224054  0.76344809    -0.70700
O410        O  0.23081410  0.69087347  0.82059766    -0.70700
O411        O  0.26344235  0.69058876  0.82733140    -0.70700
O412        O  0.27527099  0.68968696  0.76992604    -0.70700
O413        O  0.27066723  0.71902448  0.79835343    -0.70700
O414        O  0.26806521  0.66080413  0.79869328    -0.70800
V415        V  0.23734868  0.69150201  0.79211596     1.35200
V416        V  0.26873029  0.69002058  0.79849068     1.35200
C417        C  0.25155500  0.65167644  0.79410404     0.78600
C418        C  0.25467643  0.72972187  0.79571903     0.78700
C419        C  0.26088698  0.69103808  0.75695187     0.78500
C420        C  0.24507198  0.69104788  0.83379081     0.78500
O421        O  0.24416779  0.79255415  0.82523257    -0.70600
O422        O  0.24158343  0.79238244  0.76672725    -0.70900
O423        O  0.24026864  0.76340172  0.79613318    -0.70700
O424        O  0.24567828  0.82173592  0.79568817    -0.70700
O425        O  0.27885595  0.81832310  0.79384682    -0.70700
O426        O  0.27353658  0.76052283  0.79481340    -0.70700
O427        O  0.27482234  0.78932217  0.76531958    -0.70700
O428        O  0.27734551  0.78921578  0.82364473    -0.70800
V429        V  0.24354168  0.79248767  0.79594260     1.35200
V430        V  0.27546185  0.78945422  0.79447919     1.35200
C431        C  0.26117563  0.79046666  0.83440620     0.78600
C432        C  0.25780264  0.79079856  0.75610525     0.78700
C433        C  0.25610722  0.75211745  0.79557333     0.78500
C434        C  0.26326873  0.82989121  0.79415312     0.78500
O435        O  0.25951089  0.68862361  0.66478882    -0.70600
O436        O  0.25034720  0.68874161  0.72231515    -0.70900
O437        O  0.25089581  0.71750366  0.69287416    -0.70700
O438        O  0.25922880  0.65958815  0.69453388    -0.70700
O439        O  0.29179407  0.66451879  0.69955014    -0.70700
O440        O  0.28356532  0.72228514  0.69778556    -0.70700
O441        O  0.28296740  0.69340150  0.72765554    -0.70700
O442        O  0.29214293  0.69326116  0.66971922    -0.70800
V443        V  0.25565342  0.68868124  0.69370235     1.35200
V444        V  0.28699307  0.69327530  0.69858466     1.35200
C445        C  0.27729460  0.69111166  0.65735014     0.78600
C446        C  0.26499978  0.69106803  0.73477220     0.78700
C447        C  0.26583296  0.72971958  0.69503255     0.78500
C448        C  0.27698105  0.65214713  0.69748869     0.78500
O449        O  0.80682634  0.22015003  0.66976779    -0.70600
O450        O  0.80903243  0.22178668  0.72828389    -0.70900
O451        O  0.77938108  0.22631448  0.69970971    -0.70700
O452        O  0.83655794  0.21532705  0.69825708    -0.70700
O453        O  0.84299961  0.24800135  0.69843899    -0.70700
O454        O  0.78535595  0.25906549  0.69732347    -0.70700
O455        O  0.81384931  0.25478269  0.72683094    -0.70700
O456        O  0.81455751  0.25256118  0.66865229    -0.70800
V457        V  0.80808212  0.22152807  0.69898310     1.35200
V458        V  0.81407616  0.25297670  0.69781181     1.35200
C459        C  0.81043593  0.23611158  0.65924149     0.78600
C460        C  0.81164838  0.23870456  0.73746068     0.78700
C461        C  0.77259340  0.24444504  0.69843944     0.78500
C462        C  0.84960899  0.22968104  0.69854501     0.78500
O463        O  0.71208384  0.21714707  0.82401611    -0.70600
O464        O  0.71226761  0.22609594  0.76633303    -0.70900
O465        O  0.74116154  0.22350646  0.79573092    -0.70700
O466        O  0.68302123  0.21959572  0.79450361    -0.70700
O467        O  0.68053703  0.25220967  0.80102226    -0.70700
O468        O  0.73894757  0.25659278  0.79960009    -0.70700
O469        O  0.70895667  0.25892358  0.77145139    -0.70700
O470        O  0.71092057  0.25003289  0.82917140    -0.70800
V471        V  0.71206583  0.22223467  0.79526057     1.35200
V472        V  0.70982827  0.25381975  0.80020683     1.35200
C473        C  0.71203450  0.23205375  0.83647948     0.78600
C474        C  0.71061915  0.24403927  0.75909890     0.78700
C475        C  0.74994203  0.24066521  0.79778063     0.78500
C476        C  0.67182457  0.23517292  0.79757313     0.78500
O477        O  0.68033745  0.24088948  0.69598035    -0.70600
O478        O  0.73819540  0.23310196  0.69571752    -0.70900
O479        O  0.70884646  0.23262670  0.72453422    -0.70700
O480        O  0.71005648  0.24141144  0.66672908    -0.70700
O481        O  0.71424211  0.27406040  0.67182192    -0.70700
O482        O  0.71317086  0.26533458  0.72955725    -0.70700
O483        O  0.74278159  0.26580830  0.70047642    -0.70700
O484        O  0.68472925  0.27352023  0.70099180    -0.70800
V485        V  0.70941675  0.23766271  0.69578442     1.35200
V486        V  0.71364060  0.26905425  0.70058822     1.35200
C487        C  0.67259689  0.25846972  0.69898478     0.78600
C488        C  0.75031654  0.24803885  0.69817194     0.78700
C489        C  0.71083132  0.24748760  0.73684308     0.78500
C490        C  0.71254940  0.25924800  0.65937750     0.78500
O491        O  0.80991187  0.26245608  0.82645454    -0.70600
O492        O  0.81146237  0.25746782  0.76847810    -0.70900
O493        O  0.78162743  0.25885915  0.79698491    -0.70700
O494        O  0.84009993  0.26089836  0.79773980    -0.70700
O495        O  0.84126002  0.22769010  0.80079511    -0.70700
O496        O  0.78298809  0.22562011  0.79989187    -0.70700
O497        O  0.81244981  0.22420156  0.77116949    -0.70700
O498        O  0.81158429  0.22926137  0.82955988    -0.70800
V499        V  0.81085768  0.25926687  0.79749763     1.35200
V500        V  0.81206964  0.22733552  0.80030988     1.35200
C501        C  0.81019616  0.24676765  0.83789294     0.78600
C502        C  0.81191079  0.24006868  0.75994205     0.78700
C503        C  0.77241479  0.24182269  0.79822007     0.78500
C504        C  0.85064094  0.24460536  0.79922438     0.78500
N505        N  0.21927368  0.43214766  0.76936449    -0.02300
C506        C  0.20712150  0.41624040  0.77510339     0.00300
C507        C  0.19008637  0.42332426  0.78557408    -0.22600
C508        C  0.19174373  0.44434612  0.78621480    -0.22800
C509        C  0.20988600  0.44950088  0.77627475     0.00200
H510        H  0.17784456  0.41417494  0.79213211     0.13900
H511        H  0.18110868  0.45472394  0.79370501     0.14000
N512        N  0.29693193  0.43142089  0.72924615    -0.02300
C513        C  0.31200902  0.41696443  0.73012498     0.00300
C514        C  0.33037226  0.42490703  0.72301911    -0.22600
C515        C  0.32654326  0.44491822  0.71749037    -0.22800
C516        C  0.30601917  0.44856399  0.72151521     0.00200
H517        H  0.34486319  0.41685820  0.72156555     0.13900
H518        H  0.33751836  0.45567477  0.71113774     0.14000
N519        N  0.28418954  0.54841609  0.70616116    -0.02300
C520        C  0.29027311  0.56435438  0.69415198     0.00300
C521        C  0.30054267  0.55707902  0.67704067    -0.22600
C522        C  0.30064648  0.53600884  0.67852034    -0.22800
C523        C  0.29050987  0.53098903  0.69657199     0.00200
H524        H  0.30725863  0.56612959  0.66480041     0.13900
H525        H  0.30799235  0.52554043  0.66788631     0.14000
N526        N  0.24185387  0.54899895  0.78271836    -0.02300
C527        C  0.24129873  0.56431627  0.79682315     0.00300
C528        C  0.23090980  0.55806541  0.81425167    -0.22600
C529        C  0.22485873  0.53815002  0.81083262    -0.22800
C530        C  0.23179385  0.53294251  0.79144988     0.00200
H531        H  0.22729416  0.56731378  0.82758887     0.13900
H532        H  0.21607359  0.52857261  0.82121796     0.14000
N533        N  0.24136241  0.93261869  0.70312931    -0.02300
C534        C  0.23585006  0.91698194  0.69055035     0.00300
C535        C  0.22586521  0.92455647  0.67342441    -0.22600
C536        C  0.22537647  0.94557409  0.67547091    -0.22800
C537        C  0.23486725  0.95017589  0.69391524     0.00200
H538        H  0.21963749  0.91574629  0.66080047     0.13900
H539        H  0.21827350  0.95630638  0.66493605     0.14000
N540        N  0.28220972  0.93090213  0.78037795    -0.02300
C541        C  0.28173602  0.91606423  0.79508731     0.00300
C542        C  0.29107780  0.92287083  0.81285534    -0.22600
C543        C  0.29747189  0.94262127  0.80908981    -0.22800
C544        C  0.29175984  0.94723307  0.78918553     0.00200
H545        H  0.29334451  0.91424349  0.82689417     0.13900
H546        H  0.30532774  0.95263045  0.81975665     0.14000
N547        N  0.22649663  0.04918092  0.72646527    -0.02300
C548        C  0.21176748  0.06400063  0.72623429     0.00300
C549        C  0.19394445  0.05667634  0.71740992    -0.22600
C550        C  0.19777633  0.03667368  0.71188008    -0.22800
C551        C  0.21778388  0.03249246  0.71755288     0.00200
H552        H  0.17986875  0.06515109  0.71480308     0.13900
H553        H  0.18718251  0.02630882  0.70439698     0.14000
N554        N  0.30382189  0.04768316  0.76719761    -0.02300
C555        C  0.31505771  0.06385146  0.77388176     0.00300
C556        C  0.33222243  0.05703660  0.78430953    -0.22600
C557        C  0.33148615  0.03594017  0.78406003    -0.22800
C558        C  0.31383469  0.03049325  0.77352679     0.00200
H559        H  0.34392774  0.06639810  0.79145376     0.13900
H560        H  0.34224625  0.02570598  0.79154734     0.14000
N561        N  0.95334907  0.25137063  0.78898866    -0.02300
C562        C  0.93891755  0.25030807  0.80405377     0.00300
C563        C  0.94726258  0.25588137  0.82273706    -0.22600
C564        C  0.96750734  0.26072217  0.81906384    -0.22800
C565        C  0.97083503  0.25788492  0.79829158     0.00200
H566        H  0.93924881  0.25721884  0.83726119     0.13900
H567        H  0.97845713  0.26636308  0.83020050     0.14000
N568        N  0.95251875  0.21662272  0.70891382    -0.02300
C569        C  0.93688450  0.21210880  0.69589828     0.00300
C570        C  0.94447402  0.20217175  0.67871282    -0.22600
C571        C  0.96540717  0.20060596  0.68124014    -0.22800
C572        C  0.97000211  0.20948620  0.69998443     0.00200
H573        H  0.93570806  0.19652670  0.66578636     0.13900
H574        H  0.97601222  0.19305284  0.67087521     0.14000
N575        N  0.06810460  0.27871006  0.76967543    -0.02300
C576        C  0.08368371  0.29182793  0.77386407     0.00300
C577        C  0.07612810  0.30942201  0.78299863    -0.22600
C578        C  0.05517336  0.30703744  0.78444678    -0.22800
C579        C  0.05056581  0.28795627  0.77627327     0.00200
H580        H  0.08496306  0.32238456  0.78844270     0.13900
H581        H  0.04460974  0.31766523  0.79167518     0.14000
N582        N  0.06820218  0.19871759  0.73477685    -0.02300
C583        C  0.08292463  0.18389235  0.73536322     0.00300
C584        C  0.07474890  0.16515693  0.72971816    -0.22600
C585        C  0.05434049  0.16853125  0.72536281    -0.22800
C586        C  0.05070240  0.18919031  0.72854495     0.00200
H587        H  0.08293002  0.15075619  0.72818634     0.13900
H588        H  0.04344690  0.15725842  0.71988861     0.14000
O589        O  0.21297537  0.16276333  0.72693057    -0.70600
O590        O  0.21121425  0.22061761  0.73366938    -0.70900
O591        O  0.24112779  0.19205840  0.73310010    -0.70700
O592        O  0.18266730  0.19146564  0.72778015    -0.70700
O593        O  0.17982726  0.18713626  0.76075283    -0.70700
O594        O  0.23788217  0.18827348  0.76613214    -0.70700
O595        O  0.20823153  0.21669469  0.76671774    -0.70700
O596        O  0.20975351  0.15868128  0.75991208    -0.70800
V597        V  0.21188410  0.19162600  0.73099528     1.35200
V598        V  0.20894691  0.18777239  0.76271697     1.35200
C599        C  0.21194972  0.15085626  0.74225245     0.78600
C600        C  0.20976522  0.22848528  0.75133546     0.78700
C601        C  0.24938406  0.19036644  0.75062128     0.78500
C602        C  0.17127881  0.18926080  0.74345269     0.78500
O603        O  0.17970637  0.29121019  0.74512162    -0.70600
O604        O  0.23795655  0.29170916  0.73868859    -0.70900
O605        O  0.20868144  0.26260467  0.73850993    -0.70700
O606        O  0.20917540  0.32066489  0.74530914    -0.70700
O607        O  0.21279396  0.31656256  0.77817688    -0.70700
O608        O  0.21208614  0.25870025  0.77150708    -0.70700
O609        O  0.24145433  0.28787277  0.77167869    -0.70700
O610        O  0.18350927  0.28741647  0.77800802    -0.70800
V611        V  0.20893032  0.29150375  0.74252781     1.35200
V612        V  0.21239010  0.28772685  0.77417603     1.35200
C613        C  0.17165633  0.28888320  0.76270780     0.78600
C614        C  0.24957535  0.28995452  0.75415363     0.78700
C615        C  0.21013574  0.25082205  0.75389293     0.78500
C616        C  0.21134300  0.32855089  0.76295242     0.78500
O617        O  0.30879867  0.31815801  0.72923310    -0.70600
O618        O  0.31019021  0.26005643  0.73472344    -0.70900
O619        O  0.28045222  0.28885527  0.73452124    -0.70700
O620        O  0.33873683  0.28911328  0.72952127    -0.70700
O621        O  0.34152475  0.29227178  0.76261994    -0.70700
O622        O  0.28334550  0.29218604  0.76762029    -0.70700
O623        O  0.31261051  0.26321765  0.76787865    -0.70700
O624        O  0.31220571  0.32141124  0.76227449    -0.70800
V625        V  0.30963494  0.28915020  0.73263956     1.35200
V626        V  0.31236927  0.29223296  0.76444937     1.35200
C627        C  0.31015621  0.32968828  0.74479932     0.78600
C628        C  0.31148432  0.25176890  0.75223543     0.78700
C629        C  0.27201810  0.29036507  0.75197036     0.78500
C630        C  0.35006597  0.29037537  0.74525712     0.78500
O631        O  0.30773896  0.16307612  0.77729187    -0.70600
O632        O  0.30939047  0.22106461  0.77180192    -0.70900
O633        O  0.27963237  0.19236067  0.77083598    -0.70700
O634        O  0.33758942  0.19161054  0.77816923    -0.70700
O635        O  0.34183057  0.18868348  0.74523250    -0.70700
O636        O  0.28371672  0.18907932  0.73785011    -0.70700
O637        O  0.31320271  0.21788256  0.73877006    -0.70700
O638        O  0.31202171  0.15965269  0.74440891    -0.70800
V639        V  0.30867714  0.19197607  0.77386367     1.35200
V640        V  0.31265619  0.18887047  0.74219777     1.35200
C641        C  0.30939982  0.15141313  0.76185256     0.78600
C642        C  0.31142993  0.22934205  0.75435406     0.78700
C643        C  0.27181405  0.19068867  0.75314081     0.78500
C644        C  0.34967043  0.19020097  0.76296460     0.78500
N645        N  0.56935757  0.22345391  0.78641587    -0.02300
C646        C  0.58399469  0.22319154  0.80130312     0.00300
C647        C  0.57609137  0.21512718  0.81929849    -0.22600
C648        C  0.55594205  0.21013584  0.81538598    -0.22800
C649        C  0.55218511  0.21536862  0.79516340     0.00200
H650        H  0.58430576  0.21248288  0.83350271     0.13900
H651        H  0.54527272  0.20305303  0.82600972     0.14000
N652        N  0.56907357  0.26434533  0.70915599    -0.02300
C653        C  0.58472424  0.27112481  0.69715710     0.00300
C654        C  0.57704014  0.28142943  0.68026185    -0.22600
C655        C  0.55597462  0.28105577  0.68200118    -0.22800
C656        C  0.55141975  0.27058894  0.69996385     0.00200
H657        H  0.58581388  0.28853841  0.66803961     0.13900
H658        H  0.54519235  0.28843435  0.67171884     0.14000
N659        N  0.45332233  0.19783186  0.76989812    -0.02300
C660        C  0.43772608  0.18522482  0.77565472     0.00300
C661        C  0.44556234  0.16782445  0.78498625    -0.22600
C662        C  0.46660946  0.16987215  0.78505383    -0.22800
C663        C  0.47105319  0.18851829  0.77583003     0.00200
H664        H  0.43690217  0.15507846  0.79122793     0.13900
H665        H  0.47743185  0.15929936  0.79196017     0.14000
N666        N  0.45263887  0.27775851  0.73440459    -0.02300
C667        C  0.43797247  0.29264637  0.73503393     0.00300
C668        C  0.44578136  0.31109761  0.72806613    -0.22600
C669        C  0.46593050  0.30754095  0.72283532    -0.22800
C670        C  0.46975299  0.28705879  0.72682559     0.00200
H671        H  0.43748438  0.32540221  0.72626935     0.13900
H672        H  0.47657750  0.31859594  0.71643766     0.14000
C673        C  0.45932664  0.24040768  0.73173022    -0.20200
C674        C  0.45117154  0.25717736  0.74262687    -0.08200
C675        C  0.44264451  0.25369294  0.76226209     0.30600
C676        C  0.44247846  0.23394759  0.77071994    -0.20200
C677        C  0.45150712  0.21753918  0.76015799    -0.08200
C678        C  0.45985733  0.22082529  0.74056200     0.30700
F679        F  0.46859414  0.20505648  0.73008438    -0.18700
H680        H  0.46545283  0.24246479  0.71644551     0.19000
H681        H  0.43625849  0.23157863  0.78598281     0.19000
F682        F  0.43561583  0.26951805  0.77383315    -0.18700
C683        C  0.52658716  0.27635670  0.72899267    -0.20200
C684        C  0.53035693  0.26965795  0.70879520    -0.08200
C685        C  0.51351424  0.26561596  0.69589060     0.30600
C686        C  0.49348484  0.26969236  0.70255196    -0.20200
C687        C  0.48982752  0.27743144  0.72231286    -0.08200
C688        C  0.50646847  0.28025721  0.73570361     0.30700
F689        F  0.50338114  0.28843744  0.75463358    -0.18700
H690        H  0.53921580  0.28018748  0.73905671     0.19000
H691        H  0.48087745  0.26794219  0.69184858     0.19000
F692        F  0.51652231  0.25889663  0.67637309    -0.18700
C693        C  0.52905058  0.19189103  0.77609315    -0.20200
C694        C  0.53226855  0.21118605  0.78504353    -0.08200
C695        C  0.51534567  0.22421039  0.78828297     0.30600
C696        C  0.49538800  0.21749983  0.78365770    -0.20200
C697        C  0.49203747  0.19766057  0.77580521    -0.08200
C698        C  0.50919256  0.18522918  0.77133188     0.30700
F699        F  0.50665346  0.16610708  0.76345233    -0.18700
H700        H  0.54186138  0.18146982  0.77390425     0.19000
H701        H  0.48253030  0.22721678  0.78776309     0.19000
F702        F  0.51797882  0.24274051  0.79742706    -0.18700
C703        C  0.56355001  0.22314263  0.74887111    -0.20200
C704        C  0.57083581  0.23314809  0.76651711    -0.08200
C705        C  0.57859021  0.25326363  0.76464502     0.30600
C706        C  0.57886183  0.26309950  0.74554550    -0.20200
C707        C  0.57076696  0.25335225  0.72820627    -0.08200
C708        C  0.56321787  0.23326688  0.72991115     0.30700
F709        F  0.55547872  0.22356096  0.71320018    -0.18700
H710        H  0.55796712  0.20755604  0.74978924     0.19000
H711        H  0.58446230  0.27871112  0.74439397     0.19000
F712        F  0.58481974  0.26384154  0.78145105    -0.18700
C713        C  0.38042316  0.18715368  0.78583808    -0.20200
C714        C  0.37235297  0.19022671  0.76604267    -0.08200
C715        C  0.38617494  0.19314276  0.74955258     0.30600
C716        C  0.40749164  0.19260139  0.75287665    -0.20200
C717        C  0.41540582  0.18883812  0.77256659    -0.08200
C718        C  0.40165502  0.18627413  0.78905896     0.30700
F719        F  0.40878369  0.18275054  0.80833889    -0.18700
H720        H  0.37026641  0.18494388  0.79885463     0.19000
H721        H  0.41781743  0.19433170  0.73992050     0.19000
F722        F  0.37915770  0.19633626  0.73018917    -0.18700
C723        C  0.38494604  0.30067292  0.75736452    -0.20200
C724        C  0.37272531  0.28962594  0.74347371    -0.08200
C725        C  0.38237676  0.27804857  0.72792665     0.30600
C726        C  0.40383319  0.27791894  0.72614375    -0.20200
C727        C  0.41590101  0.28971282  0.73946319    -0.08200
C728        C  0.40632833  0.30105250  0.75515077     0.30700
F729        F  0.41769209  0.31272147  0.76813051    -0.18700
H730        H  0.37787636  0.30964012  0.76948435     0.19000
H731        H  0.41099337  0.26935476  0.71378545     0.19000
F732        F  0.37108427  0.26691262  0.71443549    -0.18700
C733        C  0.13706541  0.17654340  0.75533656    -0.20200
C734        C  0.14853052  0.18891095  0.74182772    -0.08200
C735        C  0.13801766  0.20078590  0.72709574     0.30600
C736        C  0.11649006  0.20007057  0.72587582    -0.20200
C737        C  0.10519147  0.18710029  0.73889740    -0.08200
C738        C  0.11565893  0.17534532  0.75367110     0.30700
F739        F  0.10514716  0.16258997  0.76640975    -0.18700
H740        H  0.14476956  0.16728576  0.76682747     0.19000
H741        H  0.10868141  0.20903102  0.71422215     0.19000
F742        F  0.14851416  0.21314167  0.71397104    -0.18700
C743        C  0.07813015  0.24234954  0.77111232    -0.20200
C744        C  0.06981404  0.25890702  0.76018208    -0.08200
C745        C  0.06212174  0.25575921  0.74034740     0.30600
C746        C  0.06250528  0.23615441  0.73163264    -0.20200
C747        C  0.06984184  0.21926950  0.74288287    -0.08200
C748        C  0.07776914  0.22257943  0.76274703     0.30700
F749        F  0.08410917  0.20656673  0.77449123    -0.18700
H750        H  0.08388970  0.24464678  0.78653820     0.19000
H751        H  0.05695329  0.23419195  0.71615777     0.19000
F752        F  0.05419913  0.27171074  0.72951216    -0.18700
C753        C  0.13582290  0.28650543  0.74837173    -0.20200
C754        C  0.14899500  0.28786038  0.76547635    -0.08200
C755        C  0.14022801  0.28840305  0.78530044     0.30600
C756        C  0.11891965  0.28866074  0.78778376    -0.20200
C757        C  0.10585359  0.28797823  0.77072633    -0.08200
C758        C  0.11439886  0.28646943  0.75095872     0.30700
F759        F  0.10209273  0.28615426  0.73415316    -0.18700
H760        H  0.14209334  0.28585000  0.73296058     0.19000
H761        H  0.11254296  0.28993376  0.80312398     0.19000
F762        F  0.15215694  0.28941108  0.80235555    -0.18700
C763        C  0.99371082  0.20048736  0.72918158    -0.20200
C764        C  0.99083241  0.20864202  0.70936921    -0.08200
C765        C  0.00823818  0.21284288  0.69721844     0.30600
C766        C  0.02791114  0.20779801  0.70423058    -0.20200
C767        C  0.03072733  0.19896144  0.72367495    -0.08200
C768        C  0.01349054  0.19564196  0.73627899     0.30700
F769        F  0.01567204  0.18637221  0.75483680    -0.18700
H770        H  0.98063606  0.19643213  0.73861203     0.19000
H771        H  0.04089864  0.20976162  0.69398140     0.19000
F772        F  0.00612502  0.22085678  0.67807295    -0.18700
C773        C  0.99272368  0.28319069  0.78000815    -0.20200
C774        C  0.99041608  0.26341097  0.78818866    -0.08200
C775        C  0.00782073  0.25087675  0.79045360     0.30600
C776        C  0.02734551  0.25836745  0.78528879    -0.20200
C777        C  0.02980042  0.27846836  0.77771616    -0.08200
C778        C  0.01214306  0.29059662  0.77456845     0.30700
F779        F  0.01375328  0.31002296  0.76715120    -0.18700
H780        H  0.97954264  0.29329778  0.77876730     0.19000
H781        H  0.04056876  0.24891687  0.78866413     0.19000
F782        F  0.00607852  0.23193408  0.79899460    -0.18700
C783        C  0.94286742  0.21522166  0.74534196    -0.20200
C784        C  0.95097112  0.22617370  0.72870418    -0.08200
C785        C  0.95881333  0.24596259  0.73181069     0.30600
C786        C  0.95868899  0.25463304  0.75145407    -0.20200
C787        C  0.95150627  0.24335497  0.76840350    -0.08200
C788        C  0.94348732  0.22352521  0.76512367     0.30700
F789        F  0.93732336  0.21172994  0.78117388    -0.18700
H790        H  0.93706056  0.19981324  0.74308240     0.19000
H791        H  0.96433495  0.27007809  0.75339878     0.19000
F792        F  0.96653429  0.25682570  0.71576716    -0.18700
C793        C  0.30883267  0.12041840  0.78442729    -0.20200
C794        C  0.30858795  0.12875811  0.76448678    -0.08200
C795        C  0.30809150  0.11522938  0.74756650     0.30600
C796        C  0.30887970  0.09391265  0.75068236    -0.20200
C797        C  0.31032622  0.08582568  0.77061452    -0.08200
C798        C  0.30983058  0.09922256  0.78747494     0.30700
F799        F  0.31076880  0.09178036  0.80694639    -0.18700
H800        H  0.30891888  0.13033826  0.79777414     0.19000
H801        H  0.30934177  0.08376666  0.73750920     0.19000
F802        F  0.30734312  0.12252719  0.72804207    -0.18700
C803        C  0.26392350  0.04248292  0.72620932    -0.20200
C804        C  0.24634900  0.05004299  0.73628857    -0.08200
C805        C  0.24824311  0.05729530  0.75657678     0.30600
C806        C  0.26729154  0.05697248  0.76643732    -0.20200
C807        C  0.28456802  0.04878307  0.75654498    -0.08200
C808        C  0.28283923  0.04157267  0.73634691     0.30700
F809        F  0.29951076  0.03384969  0.72645751    -0.18700
H810        H  0.26299237  0.03720265  0.71051430     0.19000
H811        H  0.26849954  0.06242454  0.78210217     0.19000
F812        F  0.23152238  0.06366612  0.76727303    -0.18700
C813        C  0.20204309  0.09384126  0.74800741    -0.20200
C814        C  0.21429975  0.08570042  0.73223118    -0.08200
C815        C  0.22644730  0.09895179  0.72032583     0.30600
C816        C  0.22576942  0.12016726  0.72378677    -0.20200
C817        C  0.21333529  0.12837608  0.73946592    -0.08200
C818        C  0.20184532  0.11495980  0.75190930     0.30700
F819        F  0.18955110  0.12234934  0.76707273    -0.18700
H820        H  0.19229486  0.08381226  0.75704399     0.19000
H821        H  0.23480740  0.13023001  0.71407545     0.19000
F822        F  0.23797619  0.09149592  0.70460226    -0.18700
C823        C  0.31513880  0.97263070  0.77312649    -0.20200
C824        C  0.29534547  0.96768925  0.78000668    -0.08200
C825        C  0.28068155  0.98339795  0.78211155     0.30600
C826        C  0.28616250  0.00391425  0.77836311    -0.20200
C827        C  0.30632829  0.00896142  0.77239336    -0.08200
C828        C  0.32050143  0.99297175  0.76896632     0.30700
F829        F  0.33997296  0.99715020  0.76272890    -0.18700
H830        H  0.32676062  0.96076313  0.77186776     0.19000
H831        H  0.27509811  0.01587167  0.78169736     0.19000
F832        F  0.26167014  0.97909130  0.78954833    -0.18700
C833        C  0.24042443  0.98764429  0.68923660    -0.20200
C834        C  0.23551677  0.97130908  0.70248771    -0.08200
C835        C  0.22760404  0.97582764  0.72214849     0.30600
C836        C  0.22380218  0.99622367  0.72787458    -0.20200
C837        C  0.22747072  0.01230664  0.71403489    -0.08200
C838        C  0.23621268  0.00793429  0.69481853     0.30700
F839        F  0.23916504  0.02315180  0.68084962    -0.18700
H840        H  0.24624034  0.98456468  0.67393593     0.19000
H841        H  0.21641478  0.99933905  0.74247702     0.19000
F842        F  0.22122301  0.96065955  0.73489398    -0.18700
C843        C  0.27218052  0.93844512  0.72398052    -0.20200
C844        C  0.25211623  0.93094364  0.72229242    -0.08200
C845        C  0.24254929  0.92218319  0.73950656     0.30600
C846        C  0.25248381  0.92225088  0.75853127    -0.20200
C847        C  0.27249511  0.93015019  0.76045239    -0.08200
C848        C  0.28255040  0.93751631  0.74274766     0.30700
F849        F  0.30255866  0.94314263  0.74336325    -0.18700
H850        H  0.27987551  0.94467880  0.71059504     0.19000
H851        H  0.24437558  0.91651167  0.77187842     0.19000
F852        F  0.22317583  0.91465300  0.73808213    -0.18700
C853        C  0.25300545  0.54236752  0.72645594    -0.20200
C854        C  0.27320677  0.54962195  0.72524979    -0.08200
C855        C  0.28279678  0.55726114  0.74292674     0.30600
C856        C  0.27241405  0.55699281  0.76176000    -0.20200
C857        C  0.25217953  0.54954379  0.76309855    -0.08200
C858        C  0.24237798  0.54271072  0.74512387     0.30700
F859        F  0.22236864  0.53703344  0.74542700    -0.18700
H860        H  0.24543809  0.53670986  0.71278646     0.19000
H861        H  0.28025827  0.56228285  0.77541389     0.19000
F862        F  0.30246899  0.56409102  0.74205462    -0.18700
C863        C  0.28994006  0.47299591  0.69719956    -0.20200
C864        C  0.29628553  0.46864600  0.71729520    -0.08200
C865        C  0.29791752  0.48478618  0.73148596     0.30600
C866        C  0.29453518  0.50513595  0.72519475    -0.20200
C867        C  0.28927793  0.50961794  0.70469872    -0.08200
C868        C  0.28608453  0.49318769  0.69102541     0.30700
F869        F  0.28038135  0.49674049  0.67128390    -0.18700
H870        H  0.28907243  0.46079896  0.68592335     0.19000
H871        H  0.29763230  0.51735758  0.73597046     0.19000
F872        F  0.30452983  0.48103179  0.75089746    -0.18700
C873        C  0.32289145  0.38618040  0.75019488    -0.20200
C874        C  0.30944913  0.39511146  0.73587825    -0.08200
C875        C  0.29552130  0.38253812  0.72529264     0.30600
C876        C  0.29568748  0.36124606  0.72841694    -0.20200
C877        C  0.30936402  0.35226275  0.74250745    -0.08200
C878        C  0.32266559  0.36497435  0.75375217     0.30700
F879        F  0.33624029  0.35677657  0.76729565    -0.18700
H880        H  0.33388637  0.39563827  0.75831177     0.19000
H881        H  0.28525664  0.35171281  0.71966992     0.19000
F882        F  0.28265085  0.39067873  0.71105159    -0.18700
C883        C  0.20304089  0.48683122  0.77238123    -0.20200
C884        C  0.21756490  0.47105617  0.77516625    -0.08200
C885        C  0.23786804  0.47653235  0.78047029     0.30600
C886        C  0.24306239  0.49719594  0.78364535    -0.20200
C887        C  0.22804233  0.51256316  0.78231024    -0.08200
C888        C  0.20805416  0.50727218  0.77635304     0.30700
F889        F  0.19305354  0.52176991  0.77560974    -0.18700
H890        H  0.18730051  0.48316363  0.76844880     0.19000
H891        H  0.25837572  0.50100184  0.78890319     0.19000
F892        F  0.25211959  0.46208609  0.78499599    -0.35500
C893        C  0.24020497  0.43768027  0.73838717    -0.20200
C894        C  0.23848149  0.43058062  0.75862580    -0.08200
C895        C  0.25572577  0.42218303  0.76843418     0.30600
C896        C  0.27481415  0.42231716  0.75859961    -0.20200
C897        C  0.27682305  0.43003771  0.73852082    -0.08200
C898        C  0.25914113  0.43697471  0.72818859     0.30700
F899        F  0.26002526  0.44253448  0.70815377    -0.18700
H900        H  0.22679631  0.44357956  0.73050567     0.19000
H901        H  0.28818528  0.41691119  0.76687368     0.19000
F902        F  0.25428901  0.41517666  0.78802652    -0.18700
C903        C  0.21151275  0.36454378  0.74882000    -0.20200
C904        C  0.21209069  0.35118299  0.76585516    -0.08200
C905        C  0.21300617  0.35973688  0.78573499     0.30600
C906        C  0.21233961  0.38099141  0.78842577    -0.20200
C907        C  0.21114537  0.39420867  0.77148921    -0.08200
C908        C  0.21108408  0.38590753  0.75159032     0.30700
F909        F  0.20937959  0.39835983  0.73494372    -0.18700
H910        H  0.21091798  0.35845956  0.73335302     0.19000
H911        H  0.21227140  0.38719190  0.80387099     0.19000
F912        F  0.21392955  0.34763824  0.80270483    -0.18700
C913        C  0.88445493  0.23142713  0.81161892    -0.20200
C914        C  0.87335898  0.24522916  0.79927350    -0.08200
C915        C  0.88417059  0.25959406  0.78724356     0.30600
C916        C  0.90567204  0.26030524  0.78789741    -0.20200
C917        C  0.91664076  0.24712809  0.80095370    -0.08200
C918        C  0.90589382  0.23258766  0.81275367     0.30700
F919        F  0.91615188  0.21964750  0.82550171    -0.18700
H920        H  0.87645308  0.22019967  0.82095302     0.19000
H921        H  0.91373149  0.27173362  0.77886110     0.19000
F922        F  0.87396468  0.27290660  0.77485005    -0.18700
C923        C  0.64175295  0.28143407  0.69976772    -0.20200
C924        C  0.64996507  0.26146095  0.70020226    -0.08200
C925        C  0.63632419  0.24467956  0.70177657     0.30600
C926        C  0.61500984  0.24793071  0.70212146    -0.20200
C927        C  0.60695462  0.26785881  0.70068361    -0.08200
C928        C  0.62050625  0.28461444  0.69985031     0.30700
F929        F  0.61314385  0.30410400  0.69876125    -0.18700
H930        H  0.65178355  0.29466013  0.69881321     0.19000
H931        H  0.60478427  0.23482549  0.70256761     0.19000
F932        F  0.64349563  0.22511757  0.70266033    -0.18700
C933        C  0.63705799  0.24514092  0.81068613    -0.20200
C934        C  0.64913812  0.23333737  0.79724259    -0.08200
C935        C  0.63937294  0.21926946  0.78403914     0.30600
C936        C  0.61797042  0.21694650  0.78453223    -0.20200
C937        C  0.60605141  0.22812506  0.79858610    -0.08200
C938        C  0.61574586  0.24228657  0.81165546     0.30700
F939        F  0.60458156  0.25318902  0.82551119    -0.18700
H940        H  0.64422441  0.25600043  0.82102532     0.19000
H941        H  0.61077560  0.20577101  0.77455256     0.19000
F942        F  0.65052570  0.20769784  0.77072346    -0.18700
C943        C  0.88634771  0.24064774  0.70312532    -0.20200
C944        C  0.87198607  0.22502975  0.69908103    -0.08200
C945        C  0.87928801  0.20496077  0.69544509     0.30600
C946        C  0.90037902  0.20087812  0.69533589    -0.20200
C947        C  0.91470926  0.21652533  0.69902537    -0.08200
C948        C  0.90750918  0.23648102  0.70309504     0.30700
F949        F  0.92085895  0.25221468  0.70575100    -0.18700
H950        H  0.88121601  0.25621477  0.70598635     0.19000
H951        H  0.90559397  0.18543641  0.69194466     0.19000
F952        F  0.86615104  0.18932241  0.69133267    -0.18700
C953        C  0.26375231  0.61597504  0.70038973    -0.20200
C954        C  0.28044336  0.62957702  0.69839827    -0.08200
C955        C  0.30042148  0.62132214  0.69684427     0.30600
C956        C  0.30342241  0.60006727  0.69650060    -0.20200
C957        C  0.28673981  0.58652599  0.69798693    -0.08200
C958        C  0.26683563  0.59463696  0.70022204     0.30700
F959        F  0.25026838  0.58203755  0.70087122    -0.18700
H960        H  0.24822721  0.62185482  0.70166703     0.19000
H961        H  0.31885704  0.59411273  0.69453111     0.19000
F962        F  0.31706288  0.63370851  0.69479503    -0.18700
C963        C  0.25518500  0.86553900  0.80581976    -0.20200
C964        C  0.26587410  0.85233570  0.79255362    -0.08200
C965        C  0.28012018  0.86064763  0.77853043     0.30600
C966        C  0.28415032  0.88175074  0.77837735    -0.20200
C967        C  0.27442439  0.89474014  0.79252874    -0.08200
C968        C  0.25967313  0.88656708  0.80606786     0.30700
F969        F  0.25004948  0.89887340  0.81989676    -0.18700
H970        H  0.24415750  0.85941623  0.81669878     0.19000
H971        H  0.29564943  0.88779825  0.76795208     0.19000
F972        F  0.29038119  0.84827847  0.76521279    -0.18700
C973        C  0.26427496  0.61686814  0.80431596    -0.20200
C974        C  0.25068555  0.62901962  0.79273567    -0.08200
C975        C  0.23586995  0.61928661  0.78036060     0.30600
C976        C  0.23406543  0.59789783  0.78046475    -0.20200
C977        C  0.24672849  0.58595362  0.79310000    -0.08200
C978        C  0.26212873  0.59548555  0.80474148     0.30700
F979        F  0.27457127  0.58414863  0.81705488    -0.18700
H980        H  0.27591750  0.62398088  0.81380395     0.19000
H981        H  0.22201116  0.59071323  0.77155053     0.19000
F982        F  0.22285723  0.63043813  0.76847047    -0.18700
C983        C  0.26301942  0.86578594  0.69675089    -0.20200
C984        C  0.24649727  0.85194930  0.69507963    -0.08200
C985        C  0.22640955  0.85992484  0.69336377     0.30600
C986        C  0.22314308  0.88112432  0.69270699    -0.20200
C987        C  0.23966109  0.89484643  0.69400135    -0.08200
C988        C  0.25966802  0.88704992  0.69619068     0.30700
F989        F  0.27605950  0.89989132  0.69652248    -0.18700
H990        H  0.27862938  0.86015438  0.69804907     0.19000
H991        H  0.20763241  0.88688892  0.69081523     0.19000
F992        F  0.20988521  0.84732862  0.69179407    -0.18700
C993        C  0.27683100  0.75450890  0.44392951    -0.20200
C994        C  0.28128812  0.73455381  0.43710537    -0.08200
C995        C  0.26549376  0.72222228  0.42938936     0.30600
C996        C  0.24521956  0.72919184  0.43003787    -0.20200
C997        C  0.24053492  0.74880602  0.43775574    -0.08200
C998        C  0.25660709  0.76183951  0.44375172     0.30700
F999        F  0.25260999  0.78128692  0.45008401    -0.18700
H1000       H  0.28905623  0.76425651  0.44954163     0.19000
H1001       H  0.23302154  0.71902804  0.42514861     0.19000
F1002       F  0.26961095  0.70308361  0.42225129    -0.18700
C1003       C  0.28140906  0.69499938  0.49876919    -0.20200
C1004       C  0.29057656  0.70335696  0.51634231    -0.08200
C1005       C  0.30433755  0.71984902  0.51412117     0.30600
C1006       C  0.30962897  0.72703833  0.49452925    -0.20200
C1007       C  0.30126130  0.71797531  0.47688891    -0.08200
C1008       C  0.28663644  0.70224431  0.47917943     0.30700
F1009       F  0.27915573  0.69229914  0.46251068    -0.18700
H1010       H  0.27117991  0.68195971  0.50016849     0.19000
H1011       H  0.32134594  0.73875249  0.49305775     0.19000
F1012       F  0.31433233  0.72754308  0.53066899    -0.18700
C1013       C  0.30227543  0.68770811  0.60458507    -0.20200
C1014       C  0.28525432  0.69008903  0.59156107    -0.08200
C1015       C  0.26581248  0.69361009  0.60023107     0.30600
C1016       C  0.26343338  0.69419865  0.62161093    -0.20200
C1017       C  0.28040247  0.69146407  0.63473905    -0.08200
C1018       C  0.29998549  0.68858684  0.62595632     0.30700
F1019       F  0.31682065  0.68589487  0.63794795    -0.18700
H1020       H  0.31738609  0.68490861  0.59814741     0.19000
H1021       H  0.24819138  0.69652534  0.62791031     0.19000
F1022       F  0.24895373  0.69533857  0.58811756    -0.18700
C1023       C  0.21837204  0.78946954  0.50719700    -0.20200
C1024       C  0.23631760  0.78080912  0.51546077    -0.08200
C1025       C  0.24568285  0.76441648  0.50477802     0.30600
C1026       C  0.23662361  0.75654567  0.48675532    -0.20200
C1027       C  0.21899891  0.76584298  0.47820017    -0.08200
C1028       C  0.21005520  0.78246011  0.48879769     0.30700
F1029       F  0.19352668  0.79257420  0.48106753    -0.18700
H1030       H  0.21080893  0.80215097  0.51489300     0.19000
H1031       H  0.24363993  0.74340719  0.47937230     0.19000
F1032       F  0.26386383  0.75648949  0.51117991    -0.18700
C1033       C  0.27622214  0.75643909  0.56377135    -0.20200
C1034       C  0.25664557  0.76015986  0.55539730    -0.08200
C1035       C  0.24458438  0.74341188  0.54917860     0.30600
C1036       C  0.25298059  0.72360075  0.54921568    -0.20200
C1037       C  0.27294279  0.72019473  0.55661182    -0.08200
C1038       C  0.28416207  0.73657021  0.56474775     0.30700
F1039       F  0.30332125  0.73346957  0.57234555    -0.18700
H1040       H  0.28569570  0.76910206  0.56884869     0.19000
H1041       H  0.24409923  0.71090167  0.54323404     0.19000
F1042       F  0.22506045  0.74630025  0.54250645    -0.18700
C1043       C  0.24178805  0.78001538  0.59961828    -0.20200
C1044       C  0.25500400  0.79336787  0.58900846    -0.08200
C1045       C  0.26911680  0.80520169  0.60023451     0.30600
C1046       C  0.26980681  0.80379551  0.62169520    -0.20200
C1047       C  0.25605925  0.79102370  0.63239869    -0.08200
C1048       C  0.24211689  0.77898191  0.62112452     0.30700
F1049       F  0.22883348  0.76619051  0.63086739    -0.18700
H1050       H  0.23066099  0.77092637  0.59126699     0.19000
H1051       H  0.28069725  0.81319939  0.63001040     0.19000
F1052       F  0.28217161  0.81819854  0.59044560    -0.18700
C1053       C  0.30674036  0.74431982  0.37024468    -0.20200
C1054       C  0.31000135  0.72678030  0.35797393    -0.08200
C1055       C  0.31285346  0.70768590  0.36772037     0.30600
C1056       C  0.31365041  0.70648725  0.38916606    -0.20200
C1057       C  0.31113389  0.72411299  0.40131247    -0.08200
C1058       C  0.30716138  0.74300471  0.39173711     0.30700
F1059       F  0.30492876  0.76034951  0.40307330    -0.18700
H1060       H  0.30424702  0.75918320  0.36318435     0.19000
H1061       H  0.31675451  0.69179330  0.39635433     0.19000
F1062       F  0.31580261  0.69030898  0.35659555    -0.18700
C1063       C  0.19684937  0.73460637  0.39272984    -0.20200
C1064       C  0.20785697  0.74962671  0.40351811    -0.08200
C1065       C  0.22035577  0.76338146  0.39246338     0.30600
C1066       C  0.22143514  0.76230142  0.37094605    -0.20200
C1067       C  0.21040677  0.74724566  0.36014454    -0.08200
C1068       C  0.19827129  0.73321627  0.37131189     0.30700
F1069       F  0.18706650  0.71868096  0.36146422    -0.18700
H1070       H  0.18694055  0.72403905  0.40093511     0.19000
H1071       H  0.23087689  0.77325673  0.36270680     0.19000
F1072       F  0.23069353  0.77850086  0.40235970    -0.18700
C1073       C  0.22457179  0.71357686  0.12711088    -0.20200
C1074       C  0.21319854  0.72971901  0.13595328    -0.08200
C1075       C  0.20212218  0.74301979  0.12296390     0.30600
C1076       C  0.20160731  0.73948782  0.10174255    -0.20200
C1077       C  0.21265251  0.72313688  0.09306414    -0.08200
C1078       C  0.22445581  0.71040473  0.10582954     0.30700
F1079       F  0.23494827  0.69424462  0.09782049    -0.18700
H1080       H  0.23335525  0.70321675  0.13673313     0.19000
H1081       H  0.19217742  0.74922846  0.09208292     0.19000
F1082       F  0.19092522  0.75876177  0.13083971    -0.18700
C1083       C  0.27850112  0.73358009  0.04771368    -0.20200
C1084       C  0.27887794  0.75332837  0.05623833    -0.08200
C1085       C  0.26108641  0.76126164  0.06544717     0.30600
C1086       C  0.24285042  0.74996877  0.06513778    -0.20200
C1087       C  0.24223598  0.73026605  0.05632593    -0.08200
C1088       C  0.26044486  0.72192300  0.04810802     0.30700
F1089       F  0.26097112  0.70239493  0.04097598    -0.18700
H1090       H  0.29228796  0.72722173  0.04087168     0.19000
H1091       H  0.22903138  0.75682662  0.07135971     0.19000
F1092       F  0.26111404  0.78043866  0.07357944    -0.18700
C1093       C  0.30442374  0.74749373  0.09948955    -0.20200
C1094       C  0.30706749  0.76771862  0.09244370    -0.08200
C1095       C  0.31025246  0.78339229  0.10697348     0.30600
C1096       C  0.31124336  0.77886554  0.12795196    -0.20200
C1097       C  0.30926859  0.75858302  0.13508651    -0.08200
C1098       C  0.30555441  0.74290376  0.12058504     0.30700
F1099       F  0.30319285  0.72311861  0.12670078    -0.18700
H1100       H  0.30230557  0.73510085  0.08862468     0.19000
H1101       H  0.31390742  0.79132446  0.13862905     0.19000
F1102       F  0.31260433  0.80319575  0.10086023    -0.18700
C1103       C  0.23217885  0.68326212  0.99148057    -0.20200
C1104       C  0.22789907  0.69792455  0.97619502    -0.08200
C1105       C  0.22197305  0.71784966  0.98238220     0.30600
C1106       C  0.21963620  0.72251807  0.00334622    -0.20200
C1107       C  0.22267979  0.70735729  0.01837415    -0.08200
C1108       C  0.22925337  0.68776446  0.01226149     0.30700
F1109       F  0.23144490  0.67253040  0.02635336    -0.18700
H1110       H  0.23655766  0.66777749  0.98723326     0.19000
H1111       H  0.21377083  0.73746123  0.00774549     0.19000
F1112       F  0.21618470  0.73212425  0.96838454    -0.18700
C1113       C  0.21605232  0.68920007  0.88459016    -0.20200
C1114       C  0.23186673  0.69201161  0.89895289    -0.08200
C1115       C  0.25198745  0.69527323  0.89174582     0.30600
C1116       C  0.25613534  0.69524021  0.87057210    -0.20200
C1117       C  0.24035624  0.69189769  0.85617931    -0.08200
C1118       C  0.22013062  0.68923183  0.86348274     0.30700
F1119       F  0.20431176  0.68594022  0.85033150    -0.18700
H1120       H  0.20047456  0.68643820  0.88979791     0.19000
H1121       H  0.27183059  0.69740274  0.86545908     0.19000
F1122       F  0.26786548  0.69708950  0.90507846    -0.18700
C1123       C  0.27046756  0.78008716  0.99022395    -0.20200
C1124       C  0.28493192  0.77845099  0.97428997    -0.08200
C1125       C  0.30511498  0.77255791  0.97904424     0.30600
C1126       C  0.31083980  0.76887202  0.99939077    -0.20200
C1127       C  0.29683852  0.77179222  0.01560464    -0.08200
C1128       C  0.27635117  0.77700802  0.01077346     0.30700
F1129       F  0.26261037  0.78146282  0.02578347    -0.18700
H1130       H  0.25504521  0.78540273  0.98690139     0.19000
H1131       H  0.32673586  0.76513238  0.00262879     0.19000
F1132       F  0.31968597  0.77179084  0.96410284    -0.18700
C1133       C  0.24330450  0.75611275  0.92792448    -0.20200
C1134       C  0.26312770  0.75823918  0.93621321    -0.08200
C1135       C  0.27325501  0.74067694  0.94374628     0.30600
C1136       C  0.26319017  0.72172981  0.94418115    -0.20200
C1137       C  0.24335121  0.71979731  0.93614631    -0.08200
C1138       C  0.23362616  0.73698214  0.92753506     0.30700
F1139       F  0.21434084  0.73539592  0.91981352    -0.18700
H1140       H  0.23515403  0.76940143  0.92212304     0.19000
H1141       H  0.27095463  0.70840469  0.95043414     0.19000
F1142       F  0.29305335  0.74160369  0.94999204    -0.18700
C1143       C  0.27754759  0.77725315  0.86652703    -0.20200
C1144       C  0.26229329  0.78934021  0.85712199    -0.08200
C1145       C  0.24874933  0.80068860  0.86961345     0.30600
C1146       C  0.25142594  0.80100620  0.89097424    -0.20200
C1147       C  0.26707320  0.78941183  0.90024836    -0.08200
C1148       C  0.27977058  0.77706609  0.88792974     0.30700
F1149       F  0.29515001  0.76587482  0.89649380    -0.18700
H1150       H  0.28797426  0.76816719  0.85724309     0.19000
H1151       H  0.24163039  0.81074540  0.90028088     0.19000
F1152       F  0.23372232  0.81240331  0.86112581    -0.18700
C1153       C  0.11594568  0.74005077  0.30798407    -0.20200
C1154       C  0.10729495  0.75661357  0.29726481    -0.08200
C1155       C  0.12006743  0.76975855  0.28592657     0.30600
C1156       C  0.14135358  0.76673023  0.28590310    -0.20200
C1157       C  0.15013242  0.75031426  0.29686485    -0.08200
C1158       C  0.13718636  0.73668480  0.30755746     0.30700
F1159       F  0.14513985  0.72081119  0.31850927    -0.18700
H1160       H  0.10625556  0.73002924  0.31708944     0.19000
H1161       H  0.15102160  0.77735044  0.27748282     0.19000
F1162       F  0.11203634  0.78615065  0.27582453    -0.18700
C1163       C  0.06381851  0.75103976  0.22977973    -0.20200
C1164       C  0.07138641  0.73097437  0.22826653    -0.08200
C1165       C  0.07982960  0.72145390  0.24565279     0.30600
C1166       C  0.07953165  0.73155467  0.26462339    -0.20200
C1167       C  0.07154123  0.75157307  0.26631161    -0.08200
C1168       C  0.06439184  0.76149152  0.24849667     0.30700
F1169       F  0.05864126  0.78146346  0.24897090    -0.18700
H1170       H  0.05779644  0.75867617  0.21627943     0.19000
H1171       H  0.08515787  0.72361258  0.27810576     0.19000
F1172       F  0.08737535  0.70205567  0.24441524    -0.18700
C1173       C  0.12168563  0.70297613  0.19713456    -0.20200
C1174       C  0.10791457  0.71935853  0.19961831    -0.08200
C1175       C  0.11570679  0.73925405  0.20256758     0.30600
C1176       C  0.13699554  0.74263565  0.20253059    -0.20200
C1177       C  0.15082302  0.72625182  0.19956736    -0.08200
C1178       C  0.14287439  0.70626283  0.19721765     0.30700
F1179       F  0.15547800  0.68989702  0.19424324    -0.18700
H1180       H  0.11594953  0.68757056  0.19460764     0.19000
H1181       H  0.14264692  0.75815217  0.20442902     0.19000
F1182       F  0.10282921  0.75557027  0.20416580    -0.18700
C1183       C  0.00778693  0.79854531  0.27453781    -0.20200
C1184       C  0.99195233  0.78430124  0.27805495    -0.08200
C1185       C  0.99727646  0.76430969  0.28455463     0.30600
C1186       C  0.01792094  0.75911534  0.28804855    -0.20200
C1187       C  0.03343224  0.77385401  0.28572432    -0.08200
C1188       C  0.02821855  0.79357040  0.27876802     0.30700
F1189       F  0.04276442  0.80843920  0.27737333    -0.18700
H1190       H  0.00415841  0.81409557  0.26983175     0.19000
H1191       H  0.02161895  0.74410269  0.29422012     0.19000
F1192       F  0.98264181  0.75052837  0.28987452    -0.18700
C1193       C  0.00680272  0.70098764  0.23334330    -0.20200
C1194       C  0.99051249  0.70563536  0.22005031    -0.08200
C1195       C  0.99474668  0.71520081  0.20117910     0.30600
C1196       C  0.01501048  0.71960105  0.19555159    -0.20200
C1197       C  0.03147358  0.71398510  0.20832352    -0.08200
C1198       C  0.02716074  0.70493570  0.22751438     0.30700
F1199       F  0.04250654  0.69770070  0.23957113    -0.18700
H1200       H  0.00384506  0.69281178  0.24754899     0.19000
H1201       H  0.01796165  0.72617263  0.18053465     0.19000
F1202       F  0.97944454  0.71873925  0.18746897    -0.18700
C1203       C  0.95943563  0.74234796  0.23108252    -0.20200
C1204       C  0.95197088  0.72485113  0.24131007    -0.08200
C1205       C  0.94396609  0.72704999  0.26131773     0.30600
C1206       C  0.94351101  0.74631136  0.27075371    -0.20200
C1207       C  0.95201420  0.76343319  0.26088728    -0.08200
C1208       C  0.95980588  0.76143177  0.24091358     0.30700
F1209       F  0.96759212  0.77800142  0.23094632    -0.18700
H1210       H  0.96505384  0.74126947  0.21552358     0.19000
H1211       H  0.93755463  0.74774681  0.28623537     0.19000
F1212       F  0.93760714  0.71043529  0.27217332    -0.18700
C1213       C  0.57729243  0.72759571  0.22970182    -0.20200
C1214       C  0.57072853  0.72366367  0.24990318    -0.08200
C1215       C  0.56539140  0.74029164  0.26262208     0.30600
C1216       C  0.56531466  0.76031432  0.25474955    -0.20200
C1217       C  0.57134273  0.76403738  0.23440724    -0.08200
C1218       C  0.57786608  0.74763711  0.22208074     0.30700
F1219       F  0.58360237  0.75097493  0.20230702    -0.18700
H1220       H  0.58152652  0.71500665  0.21968934     0.19000
H1221       H  0.56062038  0.77297358  0.26446647     0.19000
F1222       F  0.56084793  0.73729973  0.28270672    -0.18700
C1223       C  0.49516461  0.70380123  0.26285964    -0.20200
C1224       C  0.49192264  0.70907509  0.28357276    -0.08200
C1225       C  0.50910119  0.71165980  0.29640578     0.30600
C1226       C  0.52888700  0.70768933  0.28905086    -0.20200
C1227       C  0.53206782  0.70173099  0.26861789    -0.08200
C1228       C  0.51508940  0.70013360  0.25542350     0.30700
F1229       F  0.51765232  0.69346052  0.23583147    -0.18700
H1230       H  0.48228668  0.70096994  0.25280131     0.19000
H1231       H  0.54165869  0.70810275  0.29969062     0.19000
F1232       F  0.50666051  0.71692118  0.31644078    -0.18700
C1233       C  0.40875543  0.73532522  0.29289200    -0.20200
C1234       C  0.41577997  0.71498028  0.29445884    -0.08200
C1235       C  0.40137206  0.69900162  0.29562567     0.30600
C1236       C  0.38037001  0.70330010  0.29563646    -0.20200
C1237       C  0.37315293  0.72365331  0.29472992    -0.08200
C1238       C  0.38760633  0.73969909  0.29311482     0.30700
F1239       F  0.38138459  0.75956572  0.29198474    -0.18700
H1240       H  0.41963574  0.74787589  0.29228508     0.19000
H1241       H  0.36972507  0.69057412  0.29674235     0.19000
F1242       F  0.40763830  0.67914205  0.29691581    -0.18700
C1243       C  0.49432357  0.79421315  0.22123453    -0.20200
C1244       C  0.48987382  0.77480364  0.21316821    -0.08200
C1245       C  0.50581277  0.76047418  0.21072768     0.30600
C1246       C  0.52618925  0.76617262  0.21474203    -0.20200
C1247       C  0.53084558  0.78615493  0.22152802    -0.08200
C1248       C  0.51453038  0.79974456  0.22575399     0.30700
F1249       F  0.51825742  0.81894070  0.23295075    -0.18700
H1250       H  0.48223398  0.80555401  0.22288859     0.19000
H1251       H  0.53827602  0.75549219  0.21082504     0.19000
F1252       F  0.50188612  0.74166982  0.20267021    -0.18700
C1253       C  0.44467814  0.73137854  0.23000072    -0.20200
C1254       C  0.45137317  0.75188589  0.23007762    -0.08200
C1255       C  0.45737982  0.76087072  0.24875712     0.30600
C1256       C  0.45792173  0.74911105  0.26673088    -0.20200
C1257       C  0.45181047  0.72851214  0.26643169    -0.08200
C1258       C  0.44466823  0.71981510  0.24810472     0.30700
F1259       F  0.43869663  0.69986734  0.24761367    -0.18700
H1260       H  0.43999275  0.72419931  0.21576603     0.19000
H1261       H  0.46304193  0.75601138  0.28095583     0.19000
F1262       F  0.46231509  0.78105057  0.24970508    -0.18700
C1263       C  0.40725765  0.74587943  0.18313703    -0.20200
C1264       C  0.41646384  0.75831611  0.19810947    -0.08200
C1265       C  0.40411200  0.76752472  0.21324560     0.30600
C1266       C  0.38275473  0.76495135  0.21282379    -0.20200
C1267       C  0.37350339  0.75277802  0.19762152    -0.08200
C1268       C  0.38598464  0.74284517  0.18304417     0.30700
F1269       F  0.37751517  0.73114657  0.16803835    -0.18700
H1270       H  0.41655545  0.73888603  0.17121407     0.19000
H1271       H  0.37339332  0.77261642  0.22427352     0.19000
F1272       F  0.41254172  0.78000259  0.22763143    -0.18700
C1273       C  0.88675226  0.79083254  0.24823484    -0.20200
C1274       C  0.87249457  0.79029702  0.26455001    -0.08200
C1275       C  0.88000785  0.78947229  0.28485129     0.30600
C1276       C  0.90114363  0.79004467  0.28861816    -0.20200
C1277       C  0.91524090  0.79106906  0.27235166    -0.08200
C1278       C  0.90794345  0.79120649  0.25207493     0.30700
F1279       F  0.92121644  0.79294173  0.23606075    -0.18700
H1280       H  0.88150294  0.79143616  0.23246562     0.19000
H1281       H  0.90655529  0.79011425  0.30435296     0.19000
F1282       F  0.86700818  0.78861168  0.30116080    -0.18700
C1283       C  0.63920900  0.70385150  0.26155301    -0.20200
C1284       C  0.64901168  0.69288870  0.24571555    -0.08200
C1285       C  0.63694240  0.68213404  0.23141386     0.30600
C1286       C  0.61557598  0.68130661  0.23381228    -0.20200
C1287       C  0.60590232  0.69174307  0.25002278    -0.08200
C1288       C  0.61780322  0.70350705  0.26356794     0.30700
F1289       F  0.60886235  0.71352040  0.27954365    -0.18700
H1290       H  0.64818740  0.71240029  0.27262213     0.19000
H1291       H  0.60657898  0.67208202  0.22331621     0.19000
F1292       F  0.64585066  0.67142533  0.21587994    -0.18700
C1293       C  0.90497893  0.70787696  0.22741883    -0.20200
C1294       C  0.91664464  0.69266172  0.23724515    -0.08200
C1295       C  0.90670099  0.67839231  0.25010015     0.30600
C1296       C  0.88532526  0.67893929  0.25247690    -0.20200
C1297       C  0.87352573  0.69329604  0.24156233    -0.08200
C1298       C  0.88354584  0.70808547  0.22935634     0.30700
F1299       F  0.87256866  0.72256194  0.21910244    -0.18700
H1300       H  0.91237014  0.71892588  0.21739273     0.19000
H1301       H  0.87790134  0.66751103  0.26204209     0.19000
F1302       F  0.91765571  0.66363174  0.25996737    -0.18700
C1303       C  0.63756769  0.79100726  0.24488840    -0.20200
C1304       C  0.65075888  0.79074758  0.22769158    -0.08200
C1305       C  0.64199904  0.79072912  0.20789755     0.30600
C1306       C  0.62065226  0.79168263  0.20551387    -0.20200
C1307       C  0.60763841  0.79229463  0.22269891    -0.08200
C1308       C  0.61620657  0.79174911  0.24243889     0.30700
F1309       F  0.60399815  0.79319575  0.25931028    -0.18700
H1310       H  0.64379145  0.79106314  0.26030881     0.19000
H1311       H  0.61423424  0.79239108  0.19017982     0.19000
F1312       F  0.65398515  0.79043837  0.19081149    -0.18700
C1313       C  0.69693736  0.59601403  0.23433511    -0.20200
C1314       C  0.70704624  0.58542166  0.25016651    -0.08200
C1315       C  0.71841930  0.59667787  0.26464723     0.30600
C1316       C  0.71931600  0.61818570  0.26341598    -0.20200
C1317       C  0.70925136  0.62878342  0.24750310    -0.08200
C1318       C  0.69821625  0.61742557  0.23280827     0.30700
F1319       F  0.68791763  0.62707638  0.21745162    -0.18700
H1320       H  0.68784714  0.58765090  0.22321515     0.19000
H1321       H  0.72787912  0.62658093  0.27492027     0.19000
F1322       F  0.72777532  0.58698833  0.28056481    -0.18700
C1323       C  0.76576503  0.55775527  0.22454002    -0.20200
C1324       C  0.78110638  0.55115430  0.23800761    -0.08200
C1325       C  0.77592050  0.54543341  0.25816087     0.30600
C1326       C  0.75537703  0.54574187  0.26456557    -0.20200
C1327       C  0.73982280  0.55102971  0.25063532    -0.08200
C1328       C  0.74521824  0.55743953  0.23066644     0.30700
F1329       F  0.73049099  0.56220285  0.21671480    -0.18700
H1330       H  0.76968887  0.56211729  0.20895968     0.19000
H1331       H  0.75145734  0.54093667  0.28001244     0.19000
F1332       F  0.79072399  0.53905465  0.27136095    -0.18700
C1333       C  0.81518104  0.59904653  0.21347955    -0.20200
C1334       C  0.81257674  0.58606369  0.23048829    -0.08200
C1335       C  0.80900131  0.59478371  0.24988738     0.30600
C1336       C  0.80858054  0.61621738  0.25222237    -0.20200
C1337       C  0.81158027  0.62932521  0.23522858    -0.08200
C1338       C  0.81451142  0.62040942  0.21569678     0.30700
F1339       F  0.81727475  0.63225246  0.19874278    -0.18700
H1340       H  0.81807073  0.59256891  0.19841785     0.19000
H1341       H  0.80620586  0.62255371  0.26742165     0.19000
F1342       F  0.80699085  0.58263469  0.26671679    -0.18700
C1343       C  0.71499583  0.48193589  0.29150907    -0.20200
C1344       C  0.73334482  0.47336124  0.28410730    -0.08200
C1345       C  0.74403656  0.48390718  0.26843340     0.30600
C1346       C  0.73589075  0.50216724  0.25999499    -0.20200
C1347       C  0.71764523  0.51091542  0.26787225    -0.08200
C1348       C  0.70740864  0.50042304  0.28384026     0.30700
F1349       F  0.69016301  0.50825688  0.29261609    -0.18700
H1350       H  0.70644032  0.47432856  0.30360915     0.19000
H1351       H  0.74392462  0.50938350  0.24735066     0.19000
F1352       F  0.76254007  0.47702750  0.26168296    -0.18700
C1353       C  0.80090040  0.47368389  0.22149274    -0.20200
C1354       C  0.78603987  0.47275457  0.20591048    -0.08200
C1355       C  0.77723717  0.49111570  0.19872554     0.30600
C1356       C  0.78397212  0.51011074  0.20629423    -0.20200
C1357       C  0.79984870  0.51108903  0.22086272    -0.08200
C1358       C  0.80792795  0.49267291  0.22875958     0.30700
F1359       F  0.82349192  0.49309808  0.24260598    -0.18700
H1360       H  0.80817827  0.45974983  0.22694557     0.19000
H1361       H  0.77789704  0.52405564  0.19957569     0.19000
F1362       F  0.76295895  0.49069126  0.18356017    -0.18700
C1363       C  0.74822496  0.43951082  0.22738596    -0.20200
C1364       C  0.76835186  0.43279520  0.22357313    -0.08200
C1365       C  0.78033360  0.42527054  0.23974009     0.30600
C1366       C  0.77266948  0.42572502  0.25977619    -0.20200
C1367       C  0.75283804  0.43333575  0.26383763    -0.08200
C1368       C  0.74030933  0.43941369  0.24736585     0.30700
F1369       F  0.72073421  0.44579340  0.25069003    -0.18700
H1370       H  0.73884567  0.44513197  0.21485333     0.19000
H1371       H  0.78252747  0.42096885  0.27229113     0.19000
F1372       F  0.79978746  0.41860698  0.23622970    -0.18700
C1373       C  0.77049772  0.36830986  0.30515722    -0.20200
C1374       C  0.75469464  0.35620373  0.29680677    -0.08200
C1375       C  0.73750812  0.36614788  0.28811576     0.30600
C1376       C  0.73616265  0.38766512  0.28810578    -0.20200
C1377       C  0.75164340  0.39959705  0.29712449    -0.08200
C1378       C  0.76885857  0.38976293  0.30560795     0.30700
F1379       F  0.78397959  0.40094441  0.31454567    -0.18700
H1380       H  0.78390157  0.36112175  0.31191320     0.19000
H1381       H  0.72264834  0.39501473  0.28174295     0.19000
F1382       F  0.72199638  0.35512202  0.27965820    -0.18700
C1383       C  0.79186744  0.36307677  0.18886467    -0.20200
C1384       C  0.77328075  0.35458525  0.19579738    -0.08200
C1385       C  0.75722443  0.36795946  0.20160304     0.30600
C1386       C  0.75975453  0.38933585  0.20015322    -0.20200
C1387       C  0.77817398  0.39771328  0.19263811    -0.08200
C1388       C  0.79425991  0.38433979  0.18711637     0.30700
F1389       F  0.81241426  0.39184592  0.18008999    -0.18700
H1390       H  0.80449129  0.35319732  0.18433708     0.19000
H1391       H  0.74709817  0.39930834  0.20433482     0.19000
F1392       F  0.73914685  0.36041973  0.20877543    -0.18700
C1393       C  0.76176894  0.09682312  0.18631067    -0.20200
C1394       C  0.74745578  0.08751216  0.19951952    -0.08200
C1395       C  0.73584088  0.09989460  0.21286366     0.30600
C1396       C  0.73816302  0.12131772  0.21250913    -0.20200
C1397       C  0.75244929  0.13065431  0.19921657    -0.08200
C1398       C  0.76453291  0.11814262  0.18637263     0.30700
F1399       F  0.77830244  0.12659304  0.17316124    -0.18700
H1400       H  0.77062721  0.08752790  0.17570084     0.19000
H1401       H  0.72875227  0.13065002  0.22259450     0.19000
F1402       F  0.72149502  0.09138081  0.22540037    -0.18700
C1403       C  0.74063326  0.04476498  0.24974942    -0.20200
C1404       C  0.75128483  0.05268852  0.23269458    -0.08200
C1405       C  0.77102259  0.06102156  0.23563374     0.30600
C1406       C  0.77989577  0.06115863  0.25516924    -0.20200
C1407       C  0.76964590  0.05223709  0.27186273    -0.08200
C1408       C  0.74985223  0.04424995  0.26914077     0.30700
F1409       F  0.73953729  0.03596300  0.28526788    -0.18700
H1410       H  0.72527989  0.03872789  0.24799698     0.19000
H1411       H  0.79523918  0.06725119  0.25714976     0.19000
F1412       F  0.78225843  0.06785052  0.21945024    -0.18700
C1413       C  0.76194034  0.09679149  0.29848870    -0.20200
C1414       C  0.78190282  0.08871587  0.29981712    -0.08200
C1415       C  0.79865255  0.10227568  0.30016040     0.30600
C1416       C  0.79549160  0.12351049  0.29957396    -0.20200
C1417       C  0.77552641  0.13181066  0.29898015    -0.08200
C1418       C  0.75870187  0.11815038  0.29821472     0.30700
F1419       F  0.73913643  0.12535049  0.29753406    -0.18700
H1420       H  0.74882582  0.08656572  0.29851832     0.19000
H1421       H  0.80878003  0.13349140  0.30003982     0.19000
F1422       F  0.81815141  0.09493522  0.30136355    -0.18700
C1423       C  0.74007602  0.97696616  0.21551434    -0.20200
C1424       C  0.71966830  0.97252880  0.22112467    -0.08200
C1425       C  0.70602208  0.98896340  0.22462596     0.30600
C1426       C  0.71207690  0.00915484  0.22059583    -0.20200
C1427       C  0.73194722  0.01341160  0.21348161    -0.08200
C1428       C  0.74619875  0.99728701  0.21174362     0.30700
F1429       F  0.76548034  0.00101340  0.20470406    -0.18700
H1430       H  0.75082679  0.96469534  0.21232967     0.19000
H1431       H  0.70082718  0.02138252  0.22177220     0.19000
F1432       F  0.68636586  0.98537784  0.23064709    -0.18700
C1433       C  0.71167001  0.86087160  0.20921450    -0.20200
C1434       C  0.71367476  0.85282072  0.22916366    -0.08200
C1435       C  0.71602394  0.86656191  0.24572558     0.30600
C1436       C  0.71564646  0.88785708  0.24231000    -0.20200
C1437       C  0.71278604  0.89573487  0.22242237    -0.08200
C1438       C  0.71109284  0.88202883  0.20587113     0.30700
F1439       F  0.70857745  0.88912728  0.18641068    -0.18700
H1440       H  0.71000433  0.85075812  0.19612170     0.19000
H1441       H  0.71671612  0.89816003  0.25530937     0.19000
F1442       F  0.71844209  0.85949240  0.26519434    -0.18700
C1443       C  0.79797574  0.98590046  0.26862627    -0.20200
C1444       C  0.79372262  0.97017034  0.28279251    -0.08200
C1445       C  0.78459799  0.97534540  0.30165922     0.30600
C1446       C  0.78019706  0.99583817  0.30638899    -0.20200
C1447       C  0.78551543  0.01177400  0.29280935    -0.08200
C1448       C  0.79411384  0.00656705  0.27360369     0.30700
F1449       F  0.80098768  0.02137090  0.26065878    -0.18700
H1450       H  0.80583532  0.98231200  0.25438519     0.19000
H1451       H  0.77399037  0.99942045  0.32142522     0.19000
F1452       F  0.78154768  0.96076290  0.31626568    -0.18700
C1453       C  0.77590310  0.92483159  0.23981718    -0.20200
C1454       C  0.77605834  0.93153141  0.26034185    -0.08200
C1455       C  0.75747397  0.93761117  0.26956222     0.30600
C1456       C  0.73939817  0.93828609  0.25805553    -0.20200
C1457       C  0.73942589  0.93213975  0.23746962    -0.08200
C1458       C  0.75765020  0.92489194  0.22849940     0.30700
F1459       F  0.75787922  0.91875392  0.20858513    -0.18700
H1460       H  0.79004158  0.92001321  0.23246002     0.19000
H1461       H  0.72525272  0.94341712  0.26519235     0.19000
F1462       F  0.75664145  0.94232049  0.28978922    -0.18700
C1463       C  0.82301288  0.88735302  0.25303514    -0.20200
C1464       C  0.80799724  0.89612992  0.26586888    -0.08200
C1465       C  0.79307669  0.88332590  0.27479043     0.30600
C1466       C  0.79378600  0.86202043  0.27159492    -0.20200
C1467       C  0.80905313  0.85318720  0.25905499    -0.08200
C1468       C  0.82337729  0.86613992  0.24936287     0.30700
F1469       F  0.83845376  0.85817425  0.23731935    -0.18700
H1470       H  0.83480495  0.89693834  0.24623928     0.19000
H1471       H  0.78251738  0.85235165  0.27912345     0.19000
F1472       F  0.77863236  0.89123825  0.28761339    -0.18700
C1473       C  0.79708934  0.29129090  0.10596713    -0.20200
C1474       C  0.78047137  0.29508669  0.09291636    -0.08200
C1475       C  0.76055878  0.29629001  0.10114313     0.30600
C1476       C  0.75750374  0.29452968  0.12241380    -0.20200
C1477       C  0.77428333  0.29146034  0.13570388    -0.08200
C1478       C  0.79410392  0.28926926  0.12710724     0.30700
F1479       F  0.81079244  0.28577322  0.13910025    -0.18700
H1480       H  0.81252827  0.29034412  0.09976932     0.19000
H1481       H  0.74210147  0.29618845  0.12852298     0.19000
F1482       F  0.74427668  0.30027873  0.08875698    -0.18700
C1483       C  0.77062648  0.23213882  0.06445892    -0.20200
C1484       C  0.75018673  0.23001368  0.05789268    -0.08200
C1485       C  0.73948642  0.24754754  0.05109544     0.30600
C1486       C  0.74945217  0.26652044  0.04977799    -0.20200
C1487       C  0.76995300  0.26841761  0.05588892    -0.08200
C1488       C  0.78037292  0.25124876  0.06371436     0.30700
F1489       F  0.80018061  0.25293367  0.06994802    -0.18700
H1490       H  0.77915553  0.21886233  0.06972979     0.19000
H1491       H  0.74113199  0.27986642  0.04433608     0.19000
F1492       F  0.71927405  0.24652135  0.04637086    -0.18700
C1493       C  0.76327243  0.18664676  0.10228287    -0.20200
C1494       C  0.74714900  0.19822996  0.09388425    -0.08200
C1495       C  0.73405626  0.20921249  0.10706453     0.30600
C1496       C  0.73653389  0.20779603  0.12841048    -0.20200
C1497       C  0.75236211  0.19575344  0.13688605    -0.08200
C1498       C  0.76610716  0.18564634  0.12357416     0.30700
F1499       F  0.78155169  0.17384211  0.13114380    -0.18700
H1500       H  0.77324341  0.17777388  0.09231502     0.19000
H1501       H  0.72592321  0.21592894  0.13834715     0.19000
F1502       F  0.71808091  0.22018118  0.09934283    -0.18700
C1503       C  0.79076071  0.29805075  0.97996462    -0.20200
C1504       C  0.79689296  0.27785519  0.97581593    -0.08200
C1505       C  0.79742089  0.26350203  0.99190563     0.30600
C1506       C  0.79286965  0.26963954  0.01207881    -0.20200
C1507       C  0.78749042  0.29013907  0.01641872    -0.08200
C1508       C  0.78568246  0.30407124  0.99992610     0.30700
F1509       F  0.77989420  0.32383846  0.00321343    -0.18700
H1510       H  0.79061117  0.30938991  0.96776683     0.19000
H1511       H  0.79503456  0.25866645  0.02434174     0.19000
F1512       F  0.80391825  0.24401023  0.98835748    -0.18700
C1513       C  0.79552606  0.26676158  0.89051961    -0.20200
C1514       C  0.80983656  0.25665564  0.90304261    -0.08200
C1515       C  0.82312900  0.24203196  0.89427246     0.30600
C1516       C  0.82246458  0.23803780  0.87314654    -0.20200
C1517       C  0.80902194  0.24907246  0.86041962    -0.08200
C1518       C  0.79526677  0.26321875  0.86931048     0.30700
F1519       F  0.78176241  0.27378612  0.85743267    -0.18700
H1520       H  0.78525223  0.27814164  0.89702972     0.19000
H1521       H  0.83313575  0.22706384  0.86657854     0.19000
F1522       F  0.83704486  0.23196402  0.90610028    -0.18700
C1523       C  0.70433918  0.22087589  0.99463028    -0.20200
C1524       C  0.71844760  0.21728958  0.97864853    -0.08200
C1525       C  0.73840319  0.21051686  0.98373062     0.30600
C1526       C  0.74377771  0.20706603  0.00430883    -0.20200
C1527       C  0.72923788  0.20965892  0.02001373    -0.08200
C1528       C  0.70947479  0.21663162  0.01501532     0.30700
F1529       F  0.69466587  0.21787055  0.02968638    -0.18700
H1530       H  0.68877137  0.22565150  0.99116616     0.19000
H1531       H  0.75877549  0.20075272  0.00783768     0.19000
F1532       F  0.75193697  0.20487965  0.96894467    -0.18700
C1533       C  0.74106415  0.25454050  0.94619090    -0.20200
C1534       C  0.73943850  0.23444709  0.93874485    -0.08200
C1535       C  0.75672684  0.22483691  0.93019322     0.30600
C1536       C  0.77575045  0.23471527  0.93043626    -0.20200
C1537       C  0.77764263  0.25473774  0.93827734    -0.08200
C1538       C  0.75989469  0.26486131  0.94546640     0.30700
F1539       F  0.76053841  0.28485796  0.95111321    -0.18700
H1540       H  0.72761126  0.26228279  0.95222208     0.19000
H1541       H  0.78913676  0.22654710  0.92486766     0.19000
F1542       F  0.75535795  0.20544855  0.92270893    -0.18700
C1543       C  0.71289865  0.20546115  0.88843794    -0.20200
C1544       C  0.71232182  0.22218727  0.90194934    -0.08200
C1545       C  0.71302787  0.24220780  0.89397886     0.30600
C1546       C  0.71340681  0.24534372  0.87267065    -0.20200
C1547       C  0.71315530  0.22856561  0.85901458    -0.08200
C1548       C  0.71353289  0.20852078  0.86720459     0.30700
F1549       F  0.71390285  0.19179701  0.85477857    -0.18700
H1550       H  0.71233293  0.18992430  0.89439016     0.19000
H1551       H  0.71332378  0.26093640  0.86686622     0.19000
F1552       F  0.71201947  0.25868674  0.90669190    -0.18700
C1553       C  0.82327764  0.24703777  0.60347364    -0.20200
C1554       C  0.81108443  0.23253908  0.59329619    -0.08200
C1555       C  0.79783429  0.21995574  0.60476158     0.30600
C1556       C  0.79750385  0.22130361  0.62623769    -0.20200
C1557       C  0.81002168  0.23555059  0.63651528    -0.08200
C1558       C  0.82250557  0.24884620  0.62486596     0.30700
F1559       F  0.83477957  0.26285366  0.63418516    -0.18700
H1560       H  0.83373527  0.25668236  0.59481906     0.19000
H1561       H  0.78763889  0.21103899  0.63486624     0.19000
F1562       F  0.78618850  0.20553024  0.59528121    -0.18700
C1563       C  0.75748534  0.26656754  0.56643420    -0.20200
C1564       C  0.74080162  0.25684979  0.55700657    -0.08200
C1565       C  0.74346054  0.23731676  0.54836692     0.30600
C1566       C  0.76268302  0.22772078  0.54899306    -0.20200
C1567       C  0.77975932  0.23783405  0.55743087    -0.08200
C1568       C  0.77694506  0.25745331  0.56614559     0.30700
F1569       F  0.79317178  0.26832630  0.57331933    -0.18700
H1570       H  0.75559064  0.28174312  0.57296699     0.19000
H1571       H  0.76419834  0.21242312  0.54279744     0.19000
F1572       F  0.72735965  0.22750043  0.53955595    -0.18700
C1573       C  0.71018776  0.28554230  0.60732801    -0.20200
C1574       C  0.71281633  0.26900154  0.59377069    -0.08200
C1575       C  0.71636427  0.24929993  0.60187085     0.30600
C1576       C  0.71658872  0.24623812  0.62322148    -0.20200
C1577       C  0.71338244  0.26275652  0.63682060    -0.08200
C1578       C  0.71057862  0.28256977  0.62858104     0.30700
F1579       F  0.70730121  0.29900689  0.64097982    -0.18700
H1580       H  0.70725995  0.30081709  0.60138338     0.19000
H1581       H  0.71889035  0.23084728  0.62911602     0.19000
F1582       F  0.71829318  0.23283632  0.58925543    -0.18700
C1583       C  0.74579065  0.28498152  0.49185318    -0.20200
C1584       C  0.73146413  0.28310748  0.47593199    -0.08200
C1585       C  0.71163448  0.27600830  0.48043343     0.30600
C1586       C  0.70620278  0.27104840  0.50061001    -0.20200
C1587       C  0.72006853  0.27402501  0.51689829    -0.08200
C1588       C  0.74012744  0.28082340  0.51223391     0.30700
F1589       F  0.75354537  0.28578458  0.52728873    -0.18700
H1590       H  0.76089763  0.29121405  0.48868847     0.19000
H1591       H  0.69058559  0.26619224  0.50370925     0.19000
F1592       F  0.69705989  0.27530006  0.46555102    -0.18700
C1593       C  0.76689891  0.30426669  0.39328766    -0.20200
C1594       C  0.75038767  0.29391070  0.40248200    -0.08200
C1595       C  0.73700035  0.28238053  0.39020485     0.30600
C1596       C  0.73950008  0.28211166  0.36886000    -0.20200
C1597       C  0.75567325  0.29294047  0.35949452    -0.08200
C1598       C  0.76979624  0.30350712  0.37197228     0.30700
F1599       F  0.78569461  0.31403478  0.36351090    -0.18700
H1600       H  0.77722687  0.31336740  0.40259915     0.19000
H1601       H  0.72858364  0.27367572  0.35959441     0.19000
F1602       F  0.72075837  0.27246218  0.39875104    -0.18700
C1603       C  0.79587994  0.22291980  0.48299156    -0.20200
C1604       C  0.78882262  0.20278165  0.47957836    -0.08200
C1605       C  0.78612022  0.18972495  0.49665859     0.30600
C1606       C  0.79169097  0.19620897  0.51632388    -0.20200
C1607       C  0.79945180  0.21599151  0.51950405    -0.08200
C1608       C  0.80105200  0.22952458  0.50281477     0.30700
F1609       F  0.80897626  0.24860274  0.50548401    -0.18700
H1610       H  0.79888241  0.23313601  0.47029171     0.19000
H1611       H  0.79067506  0.18549441  0.52903522     0.19000
F1612       F  0.77895328  0.17031061  0.49423770    -0.18700
C1613       C  0.75047963  0.22604597  0.44458517    -0.20200
C1614       C  0.77135983  0.22381310  0.43988917    -0.08200
C1615       C  0.78274741  0.24095153  0.43355081     0.30600
C1616       C  0.77355692  0.26035378  0.43307563    -0.20200
C1617       C  0.75275810  0.26277205  0.43835057    -0.08200
C1618       C  0.74110831  0.24534719  0.44348676     0.30700
F1619       F  0.72062748  0.24688726  0.44684491    -0.18700
H1620       H  0.74146708  0.21274366  0.44887091     0.19000
H1621       H  0.78273001  0.27360936  0.42899440     0.19000
F1622       F  0.80294403  0.23895074  0.42873227    -0.18700
C1623       C  0.75870528  0.19608839  0.37349285    -0.20200
C1624       C  0.77584858  0.19666324  0.36024564    -0.08200
C1625       C  0.79565002  0.19782738  0.36894827     0.30600
C1626       C  0.79817187  0.19714368  0.39024022    -0.20200
C1627       C  0.78113402  0.19568752  0.40331462    -0.08200
C1628       C  0.76130529  0.19563988  0.39488138     0.30700
F1629       F  0.74456711  0.19391230  0.40722849    -0.18700
H1630       H  0.74328862  0.19539464  0.36730016     0.19000
H1631       H  0.81356150  0.19711550  0.39656980     0.19000
F1632       F  0.81270570  0.19889486  0.35696199    -0.18700
loop_ 
_geom_bond_atom_site_label_1 
_geom_bond_atom_site_label_2 
_geom_bond_distance 
_geom_bond_site_symmetry_2 
_ccdc_geom_bond_type 
N1            C5   1.359       .  A
N1            C2   1.354       .  A
N1         C1614   1.433       .  S
C2            C3   1.379       .  A
C2         C1627   1.475       .  S
C3            C4   1.375       .  A
C3            H6   1.082       .  S
C4            C5   1.387       .  A
C4            H7   1.082       .  S
C5         C1604   1.491       .  S
N8           C12   1.356       .  A
N8            C9   1.355       .  A
N8         C1617   1.439       .  S
C9           C10   1.381       .  A
C9         C1594   1.475       .  S
C10          C11   1.377       .  A
C10          H13   1.082       .  S
C11          C12   1.382       .  A
C11          H14   1.082       .  S
C12        C1584   1.476       .  S
N15          C19   1.361       .  A
N15          C16   1.358       .  A
N15        C1564   1.436       .  S
C16          C17   1.381       .  A
C16        C1574   1.483       .  S
C17          C18   1.373       .  A
C17          H20   1.082       .  S
C18          C19   1.385       .  A
C18          H21   1.082       .  S
C19        C1587   1.491       .  S
N22          C26   1.358       .  A
N22          C23   1.358       .  A
N22        C1567   1.445       .  S
C23          C24   1.381       .  A
C23        C1554   1.477       .  S
C24          C25   1.375       .  A
C24          H27   1.082       .  S
C25          C26   1.381       .  A
C25          H28   1.082       .  S
C26        C1607   1.475       .  S
N29          C33   1.359       .  A
N29          C30   1.355       .  A
N29        C1534   1.435       .  S
C30          C31   1.380       .  A
C30        C1544   1.477       .  S
C31          C32   1.375       .  A
C31          H34   1.082       .  S
C32          C33   1.386       .  A
C32          H35   1.082       .  S
C33        C1524   1.488       .  S
N36          C40   1.360       .  A
N36          C37   1.360       .  A
N36        C1537   1.444       .  S
C37          C38   1.381       .  A
C37        C1514   1.479       .  S
C38          C39   1.374       .  A
C38          H41   1.082       .  S
C39          C40   1.381       .  A
C39          H42   1.082       .  S
C40        C1504   1.477       .  S
N43          C47   1.359       .  A
N43          C44   1.359       .  A
N43        C1484   1.443       .  S
C44          C45   1.381       .  A
C44        C1494   1.477       .  S
C45          C46   1.373       .  A
C45          H48   1.082       .  S
C46          C47   1.380       .  A
C46          H49   1.082       .  S
C47        C1527   1.476       .  S
N50          C54   1.359       .  A
N50          C51   1.353       .  A
N50        C1487   1.434       .  S
C51          C52   1.379       .  A
C51        C1474   1.474       .  S
C52          C53   1.376       .  A
C52          H55   1.082       .  S
C53          C54   1.388       .  A
C53          H56   1.082       .  S
C54        C1507   1.491       .  S
N57          C61   1.361       .  A
N57          C58   1.361       .  A
N57        C1454   1.441       .  S
C58          C59   1.382       .  A
C58        C1464   1.486       .  S
C59          C60   1.376       .  A
C59          H62   1.082       .  S
C60          C61   1.381       .  A
C60          H63   1.082       .  S
C61        C1444   1.484       .  S
N64          C68   1.358       .  A
N64          C65   1.356       .  A
N64        C1457   1.434       .  S
C65          C66   1.382       .  A
C65        C1437   1.482       .  S
C66          C67   1.375       .  A
C66          H69   1.082       .  S
C67          C68   1.385       .  A
C67          H70   1.082       .  S
C68        C1424   1.488       .  S
N71          C75   1.361       .  A
N71          C72   1.358       .  A
N71        C1407   1.435       .  S
C72          C73   1.381       .  A
C72        C1414   1.484       .  S
C73          C74   1.376       .  A
C73          H76   1.082       .  S
C74          C75   1.384       .  A
C74          H77   1.082       .  S
C75        C1447   1.492       .  S
N78          C82   1.359       .  A
N78          C79   1.361       .  A
N78        C1404   1.443       .  S
C79          C80   1.382       .  A
C79        C1394   1.482       .  S
C80          C81   1.375       .  A
C80          H83   1.082       .  S
C81          C82   1.381       .  A
C81          H84   1.082       .  S
C82        C1427   1.479       .  S
O85          V93   1.890       .  S
O85          C95   1.263       .  A
O86          V93   1.893       .  S
O86          C96   1.262       .  A
O87          V93   1.903       .  S
O87          C97   1.265       .  A
O88          V93   1.903       .  S
O88          C98   1.266       .  A
O89          V94   1.907       .  S
O89          C98   1.266       .  A
O90          V94   1.903       .  S
O90          C97   1.265       .  A
O91          V94   1.905       .  S
O91          C96   1.265       .  A
O92          V94   1.912       .  S
O92          C95   1.268       .  A
V93          V94   2.087       .  T
C95        C1477   1.486       .  S
C96         C111   1.465       .  S
C97         C124   1.470       .  S
C98        C1384   1.486       .  S
O99         V107   1.904       .  S
O99         C109   1.266       .  A
O100        V107   1.903       .  S
O100        C110   1.265       .  A
O101        V107   1.897       .  S
O101        C111   1.264       .  A
O102        V107   1.902       .  S
O102        C112   1.264       .  A
O103        V108   1.902       .  S
O103        C112   1.266       .  A
O104        V108   1.902       .  S
O104        C111   1.264       .  A
O105        V108   1.906       .  S
O105        C110   1.265       .  A
O106        V108   1.909       .  S
O106        C109   1.267       .  A
V107        V108   2.087       .  T
C109       C1374   1.488       .  S
C110        C138   1.472       .  S
C112       C1597   1.479       .  S
O113        V121   1.906       .  S
O113        C123   1.266       .  A
O114        V121   1.903       .  S
O114        C124   1.265       .  A
O115        V121   1.900       .  S
O115        C125   1.264       .  A
O116        V121   1.901       .  S
O116        C126   1.264       .  A
O117        V122   1.905       .  S
O117        C126   1.266       .  A
O118        V122   1.902       .  S
O118        C125   1.264       .  A
O119        V122   1.902       .  S
O119        C124   1.264       .  A
O120        V122   1.907       .  S
O120        C123   1.266       .  A
V121        V122   2.088       .  T
C123       C1397   1.483       .  S
C125        C139   1.467       .  S
C126       C1497   1.481       .  S
O127        V135   1.913       .  S
O127        C137   1.267       .  A
O128        V135   1.907       .  S
O128        C138   1.266       .  A
O129        V135   1.903       .  S
O129        C139   1.264       .  A
O130        V135   1.907       .  S
O130        C140   1.266       .  A
O131        V136   1.897       .  S
O131        C140   1.265       .  A
O132        V136   1.899       .  S
O132        C139   1.264       .  A
O133        V136   1.901       .  S
O133        C138   1.264       .  A
O134        V136   1.901       .  S
O134        C137   1.266       .  A
V135        V136   2.086       .  T
C137       C1417   1.492       .  S
C140       C1624   1.487       .  S
N141        C145   1.355       .  A
N141        C142   1.356       .  A
N141       C1364   1.431       .  S
C142        C143   1.385       .  A
C142       C1387   1.487       .  S
C143        C144   1.380       .  A
C143        H146   1.082       .  S
C144        C145   1.382       .  A
C144        H147   1.082       .  S
C145       C1354   1.484       .  S
N148        C152   1.364       .  A
N148        C149   1.359       .  A
N148       C1367   1.438       .  S
C149        C150   1.378       .  A
C149       C1377   1.482       .  S
C150        C151   1.375       .  A
C150        H153   1.082       .  S
C151        C152   1.387       .  A
C151        H154   1.082       .  S
C152       C1344   1.497       .  S
N155        C159   1.356       .  A
N155        C156   1.355       .  A
N155       C1324   1.432       .  S
C156        C157   1.383       .  A
C156       C1334   1.482       .  S
C157        C158   1.379       .  A
C157        H160   1.082       .  S
C158        C159   1.383       .  A
C158        H161   1.082       .  S
C159       C1357   1.486       .  S
N162        C166   1.365       .  A
N162        C163   1.360       .  A
N162       C1327   1.438       .  S
C163        C164   1.378       .  A
C163       C1314   1.486       .  S
C164        C165   1.374       .  A
C164        H167   1.082       .  S
C165        C166   1.389       .  A
C165        H168   1.082       .  S
C166       C1347   1.503       .  S
O169        V177   1.906       .  S
O169        C179   1.267       .  A
O170        V177   1.907       .  S
O170        C180   1.265       .  A
O171        V177   1.895       .  S
O171        C181   1.263       .  A
O172        V177   1.893       .  S
O172        C182   1.264       .  A
O173        V178   1.912       .  S
O173        C182   1.267       .  A
O174        V178   1.909       .  S
O174        C181   1.266       .  A
O175        V178   1.892       .  S
O175        C180   1.262       .  A
O176        V178   1.899       .  S
O176        C179   1.264       .  A
V177        V178   2.087       .  T
C179       C1304   1.487       .  S
C180        C222   1.465       .  S
C181        C208   1.468       .  S
C182       C1434   1.485       .  S
O183        V191   1.908       .  S
O183        C193   1.267       .  A
O184        V191   1.908       .  S
O184        C194   1.266       .  A
O185        V191   1.902       .  S
O185        C195   1.265       .  A
O186        V191   1.907       .  S
O186        C196   1.265       .  A
O187        V192   1.899       .  S
O187        C196   1.264       .  A
O188        V192   1.903       .  S
O188        C195   1.264       .  A
O189        V192   1.901       .  S
O189        C194   1.264       .  A
O190        V192   1.904       .  S
O190        C193   1.266       .  A
V191        V192   2.086       .  T
C193       C1337   1.491       .  S
C194        C223   1.471       .  S
C195        C209   1.469       .  S
C196       C1297   1.476       .  S
O197        V205   1.901       .  S
O197        C207   1.265       .  A
O198        V205   1.898       .  S
O198        C208   1.264       .  A
O199        V205   1.905       .  S
O199        C209   1.265       .  A
O200        V205   1.905       .  S
O200        C210   1.265       .  A
O201        V206   1.899       .  S
O201        C210   1.265       .  A
O202        V206   1.899       .  S
O202        C209   1.263       .  A
O203        V206   1.906       .  S
O203        C208   1.265       .  A
O204        V206   1.911       .  S
O204        C207   1.267       .  A
V205        V206   2.088       .  T
C207       C1317   1.485       .  S
C210       C1284   1.479       .  S
O211        V219   1.902       .  S
O211        C221   1.266       .  A
O212        V219   1.895       .  S
O212        C222   1.263       .  A
O213        V219   1.905       .  S
O213        C223   1.265       .  A
O214        V219   1.905       .  S
O214        C224   1.265       .  A
O215        V220   1.911       .  S
O215        C224   1.267       .  A
O216        V220   1.904       .  S
O216        C223   1.265       .  A
O217        V220   1.904       .  S
O217        C222   1.264       .  A
O218        V220   1.905       .  S
O218        C221   1.266       .  A
V219        V220   2.086       .  T
C221       C1274   1.488       .  S
C224       C1467   1.484       .  S
N225        C229   1.357       .  A
N225        C226   1.358       .  A
N225       C1254   1.441       .  S
C226        C227   1.382       .  A
C226       C1264   1.478       .  S
C227        C228   1.375       .  A
C227        H230   1.082       .  S
C228        C229   1.381       .  A
C228        H231   1.082       .  S
C229       C1244   1.475       .  S
N232        C236   1.357       .  A
N232        C233   1.356       .  A
N232       C1257   1.433       .  S
C233        C234   1.382       .  A
C233       C1234   1.481       .  S
C234        C235   1.375       .  A
C234        H237   1.082       .  S
C235        C236   1.385       .  A
C235        H238   1.082       .  S
C236       C1224   1.487       .  S
N239        C243   1.359       .  A
N239        C240   1.357       .  A
N239       C1214   1.442       .  S
C240        C241   1.381       .  A
C240       C1287   1.477       .  S
C241        C242   1.375       .  A
C241        H244   1.082       .  S
C242        C243   1.382       .  A
C242        H245   1.082       .  S
C243       C1227   1.477       .  S
N246        C250   1.358       .  A
N246        C247   1.356       .  A
N246       C1217   1.435       .  S
C247        C248   1.379       .  A
C247       C1307   1.476       .  S
C248        C249   1.375       .  A
C248        H251   1.082       .  S
C249        C250   1.386       .  A
C249        H252   1.082       .  S
C250       C1247   1.489       .  S
N253        C257   1.359       .  A
N253        C254   1.360       .  A
N253       C1204   1.444       .  S
C254        C255   1.382       .  A
C254       C1294   1.480       .  S
C255        C256   1.374       .  A
C255        H258   1.082       .  S
C256        C257   1.381       .  A
C256        H259   1.082       .  S
C257       C1194   1.477       .  S
N260        C264   1.359       .  A
N260        C261   1.356       .  A
N260       C1207   1.435       .  S
C261        C262   1.380       .  A
C261       C1277   1.478       .  S
C262        C263   1.375       .  A
C262        H265   1.082       .  S
C263        C264   1.386       .  A
C263        H266   1.082       .  S
C264       C1184   1.490       .  S
N267        C271   1.358       .  A
N267        C268   1.357       .  A
N267       C1164   1.435       .  S
C268        C269   1.382       .  A
C268       C1174   1.480       .  S
C269        C270   1.375       .  A
C269        H272   1.082       .  S
C270        C271   1.383       .  A
C270        H273   1.082       .  S
C271       C1197   1.485       .  S
N274        C278   1.359       .  A
N274        C275   1.357       .  A
N274       C1167   1.443       .  S
C275        C276   1.380       .  A
C275       C1154   1.473       .  S
C276        C277   1.374       .  A
C276        H279   1.082       .  S
C277        C278   1.381       .  A
C277        H280   1.082       .  S
C278       C1187   1.477       .  S
N281        C285   1.361       .  A
N281        C282   1.360       .  A
N281       C1134   1.443       .  S
C282        C283   1.381       .  A
C282       C1147   1.480       .  S
C283        C284   1.375       .  A
C283        H286   1.082       .  S
C284        C285   1.382       .  A
C284        H287   1.082       .  S
C285       C1124   1.480       .  S
N288        C292   1.360       .  A
N288        C289   1.360       .  A
N288       C1137   1.434       .  S
C289        C290   1.382       .  A
C289       C1114   1.487       .  S
C290        C291   1.375       .  A
C290        H293   1.082       .  S
C291        C292   1.385       .  A
C291        H294   1.082       .  S
C292       C1104   1.493       .  S
N295        C299   1.361       .  A
N295        C296   1.362       .  A
N295       C1084   1.436       .  S
C296        C297   1.383       .  A
C296       C1094   1.490       .  S
C297        C298   1.373       .  A
C297        H300   1.082       .  S
C298        C299   1.384       .  A
C298        H301   1.082       .  S
C299       C1127   1.492       .  S
N302        C306   1.361       .  A
N302        C303   1.360       .  A
N302       C1087   1.444       .  S
C303        C304   1.380       .  A
C303       C1077   1.477       .  S
C304        C305   1.374       .  A
C304        H307   1.082       .  S
C305        C306   1.382       .  A
C305        H308   1.082       .  S
C306       C1107   1.480       .  S
O309        V317   1.894       .  S
O309        C319   1.263       .  A
O310        V317   1.890       .  S
O310        C320   1.262       .  A
O311        V317   1.900       .  S
O311        C321   1.265       .  A
O312        V317   1.901       .  S
O312        C322   1.265       .  A
O313        V318   1.907       .  S
O313        C322   1.266       .  A
O314        V318   1.904       .  S
O314        C321   1.264       .  A
O315        V318   1.907       .  S
O315        C320   1.265       .  A
O316        V318   1.909       .  S
O316        C319   1.267       .  A
V317        V318   2.087       .  T
C319       C1177   1.485       .  S
C320        C335   1.463       .  S
C321        C349   1.468       .  S
C322       C1074   1.484       .  S
O323        V331   1.912       .  S
O323        C333   1.267       .  A
O324        V331   1.912       .  S
O324        C334   1.266       .  A
O325        V331   1.892       .  S
O325        C335   1.263       .  A
O326        V331   1.902       .  S
O326        C336   1.264       .  A
O327        V332   1.903       .  S
O327        C336   1.265       .  A
O328        V332   1.904       .  S
O328        C335   1.264       .  A
O329        V332   1.897       .  S
O329        C334   1.264       .  A
O330        V332   1.902       .  S
O330        C333   1.266       .  A
V331        V332   2.086       .  T
C333       C1097   1.492       .  S
C334        C362   1.471       .  S
C336       C1267   1.476       .  S
O337        V345   1.900       .  S
O337        C347   1.265       .  A
O338        V345   1.901       .  S
O338        C348   1.263       .  A
O339        V345   1.909       .  S
O339        C349   1.266       .  A
O340        V345   1.914       .  S
O340        C350   1.268       .  A
O341        V346   1.898       .  S
O341        C350   1.264       .  A
O342        V346   1.895       .  S
O342        C349   1.262       .  A
O343        V346   1.900       .  S
O343        C348   1.265       .  A
O344        V346   1.902       .  S
O344        C347   1.265       .  A
V345        V346   2.088       .  T
C347       C1157   1.478       .  S
C348        C363   1.466       .  S
C350       C1067   1.484       .  S
O351        V359   1.897       .  S
O351        C361   1.264       .  A
O352        V359   1.894       .  S
O352        C362   1.262       .  A
O353        V359   1.907       .  S
O353        C363   1.266       .  A
O354        V359   1.914       .  S
O354        C364   1.268       .  A
O355        V360   1.891       .  S
O355        C364   1.263       .  A
O356        V360   1.893       .  S
O356        C363   1.262       .  A
O357        V360   1.914       .  S
O357        C362   1.267       .  A
O358        V360   1.909       .  S
O358        C361   1.268       .  A
V359        V360   2.087       .  T
C361       C1054   1.486       .  S
C364       C1237   1.487       .  S
N365        C369   1.365       .  A
N365        C366   1.360       .  A
N365       C1034   1.441       .  S
C366        C367   1.379       .  A
C366       C1044   1.485       .  S
C367        C368   1.374       .  A
C367        H370   1.082       .  S
C368        C369   1.388       .  A
C368        H371   1.082       .  S
C369       C1024   1.497       .  S
N372        C376   1.354       .  A
N372        C373   1.355       .  A
N372       C1037   1.433       .  S
C373        C374   1.383       .  A
C373       C1014   1.481       .  S
C374        C375   1.379       .  A
C374        H377   1.082       .  S
C375        C376   1.382       .  A
C375        H378   1.082       .  S
C376       C1004   1.481       .  S
N379        C383   1.356       .  A
N379        C380   1.355       .  A
N379        C994   1.434       .  S
C380        C381   1.382       .  A
C380       C1057   1.479       .  S
C381        C382   1.377       .  A
C381        H384   1.082       .  S
C382        C383   1.382       .  A
C382        H385   1.082       .  S
C383       C1007   1.481       .  S
N386        C390   1.365       .  A
N386        C387   1.359       .  A
N386        C997   1.439       .  S
C387        C388   1.379       .  A
C387       C1064   1.486       .  S
C388        C389   1.375       .  A
C388        H391   1.082       .  S
C389        C390   1.388       .  A
C389        H392   1.082       .  S
C390       C1027   1.500       .  S
O393        V401   1.898       .  S
O393        C403   1.264       .  A
O394        V401   1.898       .  S
O394        C404   1.263       .  A
O395        V401   1.908       .  S
O395        C405   1.266       .  A
O396        V401   1.907       .  S
O396        C406   1.266       .  A
O397        V402   1.902       .  S
O397        C406   1.265       .  A
O398        V402   1.897       .  S
O398        C405   1.263       .  A
O399        V402   1.906       .  S
O399        C404   1.266       .  A
O400        V402   1.907       .  S
O400        C403   1.267       .  A
V401        V402   2.086       .  T
C403        C984   1.487       .  S
C404        C447   1.469       .  S
C405        C432   1.468       .  S
C406       C1047   1.483       .  S
O407        V415   1.898       .  S
O407        C417   1.265       .  A
O408        V415   1.901       .  S
O408        C418   1.263       .  A
O409        V415   1.897       .  S
O409        C419   1.264       .  A
O410        V415   1.901       .  S
O410        C420   1.265       .  A
O411        V416   1.908       .  S
O411        C420   1.267       .  A
O412        V416   1.906       .  S
O412        C419   1.265       .  A
O413        V416   1.893       .  S
O413        C418   1.263       .  A
O414        V416   1.903       .  S
O414        C417   1.265       .  A
V415        V416   2.087       .  T
C417        C974   1.479       .  S
C418        C433   1.461       .  S
C419        C446   1.468       .  S
C420       C1117   1.490       .  S
O421        V429   1.907       .  S
O421        C431   1.266       .  A
O422        V429   1.906       .  S
O422        C432   1.265       .  A
O423        V429   1.906       .  S
O423        C433   1.265       .  A
O424        V429   1.910       .  S
O424        C434   1.266       .  A
O425        V430   1.893       .  S
O425        C434   1.263       .  A
O426        V430   1.888       .  S
O426        C433   1.261       .  A
O427        V430   1.898       .  S
O427        C432   1.264       .  A
O428        V430   1.902       .  S
O428        C431   1.265       .  A
V429        V430   2.088       .  T
C431       C1144   1.482       .  S
C434        C964   1.475       .  S
O435        V443   1.898       .  S
O435        C445   1.264       .  A
O436        V443   1.893       .  S
O436        C446   1.262       .  A
O437        V443   1.902       .  S
O437        C447   1.265       .  A
O438        V443   1.909       .  S
O438        C448   1.267       .  A
O439        V444   1.899       .  S
O439        C448   1.265       .  A
O440        V444   1.902       .  S
O440        C447   1.264       .  A
O441        V444   1.910       .  S
O441        C446   1.266       .  A
O442        V444   1.908       .  S
O442        C445   1.267       .  A
V443        V444   2.087       .  T
C445       C1017   1.485       .  S
C448        C954   1.488       .  S
O449        V457   1.905       .  S
O449        C459   1.266       .  A
O450        V457   1.908       .  S
O450        C460   1.265       .  A
O451        V457   1.894       .  S
O451        C461   1.263       .  A
O452        V457   1.897       .  S
O452        C462   1.264       .  A
O453        V458   1.910       .  S
O453        C462   1.268       .  A
O454        V458   1.910       .  S
O454        C461   1.266       .  A
O455        V458   1.892       .  S
O455        C460   1.262       .  A
O456        V458   1.898       .  S
O456        C459   1.264       .  A
V457        V458   2.086       .  T
C459       C1557   1.480       .  S
C460        C502   1.466       .  S
C461        C488   1.468       .  S
C462        C944   1.487       .  S
O463        V471   1.900       .  S
O463        C473   1.266       .  A
O464        V471   1.899       .  S
O464        C474   1.264       .  A
O465        V471   1.896       .  S
O465        C475   1.263       .  A
O466        V471   1.899       .  S
O466        C476   1.264       .  A
O467        V472   1.910       .  S
O467        C476   1.267       .  A
O468        V472   1.904       .  S
O468        C475   1.265       .  A
O469        V472   1.901       .  S
O469        C474   1.264       .  A
O470        V472   1.902       .  S
O470        C473   1.265       .  A
V471        V472   2.087       .  T
C473       C1547   1.486       .  S
C474        C489   1.466       .  S
C475        C503   1.465       .  S
C476        C934   1.482       .  S
O477        V485   1.904       .  S
O477        C487   1.265       .  A
O478        V485   1.896       .  S
O478        C488   1.264       .  A
O479        V485   1.900       .  S
O479        C489   1.264       .  A
O480        V485   1.907       .  S
O480        C490   1.266       .  A
O481        V486   1.900       .  S
O481        C490   1.265       .  A
O482        V486   1.901       .  S
O482        C489   1.264       .  A
O483        V486   1.908       .  S
O483        C488   1.265       .  A
O484        V486   1.903       .  S
O484        C487   1.266       .  A
V485        V486   2.087       .  T
C487        C924   1.487       .  S
C490       C1577   1.486       .  S
O491        V499   1.897       .  S
O491        C501   1.264       .  A
O492        V499   1.893       .  S
O492        C502   1.263       .  A
O493        V499   1.903       .  S
O493        C503   1.264       .  A
O494        V499   1.906       .  S
O494        C504   1.266       .  A
O495        V500   1.900       .  S
O495        C504   1.264       .  A
O496        V500   1.896       .  S
O496        C503   1.263       .  A
O497        V500   1.908       .  S
O497        C502   1.265       .  A
O498        V500   1.908       .  S
O498        C501   1.266       .  A
V499        V500   2.088       .  T
C501       C1517   1.476       .  S
C504        C914   1.479       .  S
N505        C509   1.360       .  A
N505        C506   1.356       .  A
N505        C894   1.434       .  S
C506        C507   1.379       .  A
C506        C907   1.477       .  S
C507        C508   1.374       .  A
C507        H510   1.082       .  S
C508        C509   1.387       .  A
C508        H511   1.082       .  S
C509        C884   1.492       .  S
N512        C516   1.360       .  A
N512        C513   1.360       .  A
N512        C897   1.443       .  S
C513        C514   1.382       .  A
C513        C874   1.481       .  S
C514        C515   1.374       .  A
C514        H517   1.082       .  S
C515        C516   1.381       .  A
C515        H518   1.082       .  S
C516        C864   1.478       .  S
N519        C523   1.358       .  A
N519        C520   1.358       .  A
N519        C854   1.434       .  S
C520        C521   1.381       .  A
C520        C957   1.483       .  S
C521        C522   1.375       .  A
C521        H524   1.082       .  S
C522        C523   1.385       .  A
C522        H525   1.082       .  S
C523        C867   1.490       .  S
N526        C530   1.358       .  A
N526        C527   1.357       .  A
N526        C857   1.442       .  S
C527        C528   1.381       .  A
C527        C977   1.473       .  S
C528        C529   1.374       .  A
C528        H531   1.082       .  S
C529        C530   1.381       .  A
C529        H532   1.082       .  S
C530        C887   1.476       .  S
N533        C537   1.358       .  A
N533        C534   1.356       .  A
N533        C844   1.435       .  S
C534        C535   1.381       .  A
C534        C987   1.479       .  S
C535        C536   1.375       .  A
C535        H538   1.082       .  S
C536        C537   1.384       .  A
C536        H539   1.082       .  S
C537        C834   1.486       .  S
N540        C544   1.360       .  A
N540        C541   1.360       .  A
N540        C847   1.445       .  S
C541        C542   1.381       .  A
C541        C967   1.478       .  S
C542        C543   1.374       .  A
C542        H545   1.082       .  S
C543        C544   1.381       .  A
C543        H546   1.082       .  S
C544        C824   1.478       .  S
N547        C551   1.358       .  A
N547        C548   1.359       .  A
N547        C804   1.444       .  S
C548        C549   1.381       .  A
C548        C814   1.476       .  S
C549        C550   1.374       .  A
C549        H552   1.082       .  S
C550        C551   1.381       .  A
C550        H553   1.082       .  S
C551        C837   1.475       .  S
N554        C558   1.358       .  A
N554        C555   1.355       .  A
N554        C807   1.435       .  S
C555        C556   1.381       .  A
C555        C797   1.478       .  S
C556        C557   1.375       .  A
C556        H559   1.082       .  S
C557        C558   1.386       .  A
C557        H560   1.082       .  S
C558        C827   1.487       .  S
N561        C565   1.359       .  A
N561        C562   1.358       .  A
N561        C787   1.444       .  S
C562        C563   1.382       .  A
C562        C917   1.479       .  S
C563        C564   1.376       .  A
C563        H566   1.082       .  S
C564        C565   1.381       .  A
C564        H567   1.082       .  S
C565        C774   1.478       .  S
N568        C572   1.358       .  A
N568        C569   1.358       .  A
N568        C784   1.434       .  S
C569        C570   1.383       .  A
C569        C947   1.485       .  S
C570        C571   1.376       .  A
C570        H573   1.082       .  S
C571        C572   1.384       .  A
C571        H574   1.082       .  S
C572        C764   1.489       .  S
N575        C579   1.359       .  A
N575        C576   1.355       .  A
N575        C744   1.434       .  S
C576        C577   1.381       .  A
C576        C757   1.478       .  S
C577        C578   1.376       .  A
C577        H580   1.082       .  S
C578        C579   1.385       .  A
C578        H581   1.082       .  S
C579        C777   1.489       .  S
N582        C586   1.360       .  A
N582        C583   1.360       .  A
N582        C747   1.443       .  S
C583        C584   1.382       .  A
C583        C737   1.483       .  S
C584        C585   1.376       .  A
C584        H587   1.082       .  S
C585        C586   1.381       .  A
C585        H588   1.082       .  S
C586        C767   1.481       .  S
O589        V597   1.899       .  S
O589        C599   1.264       .  A
O590        V597   1.896       .  S
O590        C600   1.262       .  A
O591        V597   1.908       .  S
O591        C601   1.266       .  A
O592        V597   1.913       .  S
O592        C602   1.268       .  A
O593        V598   1.900       .  S
O593        C602   1.264       .  A
O594        V598   1.897       .  S
O594        C601   1.263       .  A
O595        V598   1.902       .  S
O595        C600   1.265       .  A
O596        V598   1.904       .  S
O596        C599   1.265       .  A
V597        V598   2.088       .  T
C599        C817   1.478       .  S
C600        C615   1.464       .  S
C601        C643   1.469       .  S
C602        C734   1.485       .  S
O603        V611   1.909       .  S
O603        C613   1.267       .  A
O604        V611   1.905       .  S
O604        C614   1.265       .  A
O605        V611   1.900       .  S
O605        C615   1.264       .  A
O606        V611   1.908       .  S
O606        C616   1.267       .  A
O607        V612   1.896       .  S
O607        C616   1.264       .  A
O608        V612   1.898       .  S
O608        C615   1.263       .  A
O609        V612   1.898       .  S
O609        C614   1.263       .  A
O610        V612   1.896       .  S
O610        C613   1.264       .  A
V611        V612   2.087       .  T
C613        C754   1.487       .  S
C614        C629   1.467       .  S
C616        C904   1.487       .  S
O617        V625   1.902       .  S
O617        C627   1.265       .  A
O618        V625   1.899       .  S
O618        C628   1.263       .  A
O619        V625   1.903       .  S
O619        C629   1.264       .  A
O620        V625   1.904       .  S
O620        C630   1.266       .  A
O621        V626   1.901       .  S
O621        C630   1.264       .  A
O622        V626   1.900       .  S
O622        C629   1.264       .  A
O623        V626   1.902       .  S
O623        C628   1.265       .  A
O624        V626   1.905       .  S
O624        C627   1.265       .  A
V625        V626   2.088       .  T
C627        C877   1.478       .  S
C628        C642   1.467       .  S
C630        C724   1.480       .  S
O631        V639   1.896       .  S
O631        C641   1.264       .  A
O632        V639   1.899       .  S
O632        C642   1.263       .  A
O633        V639   1.901       .  S
O633        C643   1.265       .  A
O634        V639   1.903       .  S
O634        C644   1.266       .  A
O635        V640   1.909       .  S
O635        C644   1.267       .  A
O636        V640   1.905       .  S
O636        C643   1.264       .  A
O637        V640   1.902       .  S
O637        C642   1.265       .  A
O638        V640   1.908       .  S
O638        C641   1.266       .  A
V639        V640   2.087       .  T
C641        C794   1.486       .  S
C644        C714   1.490       .  S
N645        C649   1.360       .  A
N645        C646   1.360       .  A
N645        C704   1.443       .  S
C646        C647   1.382       .  A
C646        C937   1.482       .  S
C647        C648   1.376       .  A
C647        H650   1.082       .  S
C648        C649   1.381       .  A
C648        H651   1.082       .  S
C649        C694   1.481       .  S
N652        C656   1.358       .  A
N652        C653   1.356       .  A
N652        C707   1.435       .  S
C653        C654   1.382       .  A
C653        C927   1.480       .  S
C654        C655   1.376       .  A
C654        H657   1.082       .  S
C655        C656   1.384       .  A
C655        H658   1.082       .  S
C656        C684   1.487       .  S
N659        C663   1.359       .  A
N659        C660   1.358       .  A
N659        C677   1.435       .  S
C660        C661   1.382       .  A
C660        C717   1.485       .  S
C661        C662   1.376       .  A
C661        H664   1.082       .  S
C662        C663   1.385       .  A
C662        H665   1.082       .  S
C663        C697   1.490       .  S
N666        C670   1.360       .  A
N666        C667   1.360       .  A
N666        C674   1.446       .  S
C667        C668   1.381       .  A
C667        C727   1.477       .  S
C668        C669   1.373       .  A
C668        H671   1.082       .  S
C669        C670   1.381       .  A
C669        H672   1.082       .  S
C670        C687   1.477       .  S
C673        C674   1.405       .  A
C673        C678   1.399       .  A
C673        H680   1.079       .  S
C674        C675   1.410       .  A
C675        C676   1.398       .  A
C675        F682   1.355       .  S
C676        C677   1.399       .  A
C676        H681   1.083       .  S
C677        C678   1.402       .  A
C678        F679   1.357       .  S
C683        C684   1.406       .  A
C683        C688   1.402       .  A
C683        H690   1.081       .  S
C684        C685   1.407       .  A
C685        C686   1.398       .  A
C685        F692   1.358       .  S
C686        C687   1.402       .  A
C686        H691   1.083       .  S
C687        C688   1.404       .  A
C688        F689   1.357       .  S
C693        C694   1.402       .  A
C693        C698   1.399       .  A
C693        H700   1.083       .  S
C694        C695   1.405       .  A
C695        C696   1.404       .  A
C695        F702   1.357       .  S
C696        C697   1.407       .  A
C696        H701   1.082       .  S
C697        C698   1.408       .  A
C698        F699   1.358       .  S
C703        C704   1.404       .  A
C703        C708   1.399       .  A
C703        H710   1.080       .  S
C704        C705   1.409       .  A
C705        C706   1.398       .  A
C705        F712   1.356       .  S
C706        C707   1.399       .  A
C706        H711   1.083       .  S
C707        C708   1.402       .  A
C708        F709   1.357       .  S
C713        C714   1.406       .  A
C713        C718   1.399       .  A
C713        H720   1.083       .  S
C714        C715   1.412       .  A
C715        C716   1.405       .  A
C715        F722   1.357       .  S
C716        C717   1.403       .  A
C716        H721   1.083       .  S
C717        C718   1.406       .  A
C718        F719   1.358       .  S
C723        C724   1.405       .  A
C723        C728   1.399       .  A
C723        H730   1.083       .  S
C724        C725   1.409       .  A
C725        C726   1.401       .  A
C725        F732   1.357       .  S
C726        C727   1.401       .  A
C726        H731   1.083       .  S
C727        C728   1.405       .  A
C728        F729   1.358       .  S
C733        C734   1.406       .  A
C733        C738   1.400       .  A
C733        H740   1.083       .  S
C734        C735   1.409       .  A
C735        C736   1.404       .  A
C735        F742   1.357       .  S
C736        C737   1.404       .  A
C736        H741   1.083       .  S
C737        C738   1.405       .  A
C738        F739   1.358       .  S
C743        C744   1.400       .  A
C743        C748   1.398       .  A
C743        H750   1.083       .  S
C744        C745   1.401       .  A
C745        C746   1.398       .  A
C745        F752   1.357       .  S
C746        C747   1.404       .  A
C746        H751   1.078       .  S
C747        C748   1.410       .  A
C748        F749   1.356       .  S
C753        C754   1.409       .  A
C753        C758   1.404       .  A
C753        H760   1.083       .  S
C754        C755   1.410       .  A
C755        C756   1.396       .  A
C755        F762   1.357       .  S
C756        C757   1.400       .  A
C756        H761   1.084       .  S
C757        C758   1.404       .  A
C758        F759   1.357       .  S
C763        C764   1.407       .  A
C763        C768   1.404   1_655  A
C763        H770   1.081       .  S
C764        C765   1.407   1_655  A
C765        C766   1.399       .  A
C765        F772   1.357       .  S
C766        C767   1.402       .  A
C766        H771   1.083       .  S
C767        C768   1.405       .  A
C768        F769   1.357       .  S
C773        C774   1.401       .  A
C773        C778   1.398   1_655  A
C773        H780   1.083       .  S
C774        C775   1.403   1_655  A
C775        C776   1.402       .  A
C775        F782   1.357       .  S
C776        C777   1.407       .  A
C776        H781   1.080       .  S
C777        C778   1.409       .  A
C778        F779   1.358       .  S
C783        C784   1.399       .  A
C783        C788   1.398       .  A
C783        H790   1.083       .  S
C784        C785   1.402       .  A
C785        C786   1.398       .  A
C785        F792   1.357       .  S
C786        C787   1.404       .  A
C786        H791   1.079       .  S
C787        C788   1.410       .  A
C788        F789   1.356       .  S
C793        C794   1.406       .  A
C793        C798   1.396       .  A
C793        H800   1.083       .  S
C794        C795   1.411       .  A
C795        C796   1.403       .  A
C795        F802   1.357       .  S
C796        C797   1.403       .  A
C796        H801   1.083       .  S
C797        C798   1.403       .  A
C798        F799   1.358       .  S
C803        C804   1.406       .  A
C803        C808   1.399       .  A
C803        H810   1.080       .  S
C804        C805   1.408       .  A
C805        C806   1.397       .  A
C805        F812   1.355       .  S
C806        C807   1.400       .  A
C806        H811   1.083       .  S
C807        C808   1.401       .  A
C808        F809   1.357       .  S
C813        C814   1.403       .  A
C813        C818   1.399       .  A
C813        H820   1.083       .  S
C814        C815   1.403       .  A
C815        C816   1.401       .  A
C815        F822   1.357       .  S
C816        C817   1.407       .  A
C816        H821   1.083       .  S
C817        C818   1.406       .  A
C818        F819   1.357       .  S
C823        C824   1.401       .  A
C823        C828   1.396       .  A
C823        H830   1.084       .  S
C824        C825   1.404       .  A
C825        C826   1.404   1_565  A
C825        F832   1.357       .  S
C826        C827   1.407       .  A
C826        H831   1.082       .  S
C827        C828   1.408   1_545  A
C828        F829   1.358       .  S
C833        C834   1.405       .  A
C833        C838   1.397   1_565  A
C833        H840   1.083       .  S
C834        C835   1.410       .  A
C835        C836   1.401       .  A
C835        F842   1.354       .  S
C836        C837   1.401   1_565  A
C836        H841   1.083       .  S
C837        C838   1.402       .  A
C838        F839   1.358       .  S
C843        C844   1.399       .  A
C843        C848   1.398       .  A
C843        H850   1.083       .  S
C844        C845   1.402       .  A
C845        C846   1.398       .  A
C845        F852   1.357       .  S
C846        C847   1.407       .  A
C846        H851   1.082       .  S
C847        C848   1.408       .  A
C848        F849   1.354       .  S
C853        C854   1.400       .  A
C853        C858   1.397       .  A
C853        H860   1.083       .  S
C854        C855   1.402       .  A
C855        C856   1.399       .  A
C855        F862   1.357       .  S
C856        C857   1.406       .  A
C856        H861   1.082       .  S
C857        C858   1.406       .  A
C858        F859   1.354       .  S
C863        C864   1.401       .  A
C863        C868   1.397       .  A
C863        H870   1.083       .  S
C864        C865   1.404       .  A
C865        C866   1.404       .  A
C865        F872   1.357       .  S
C866        C867   1.408       .  A
C866        H871   1.081       .  S
C867        C868   1.408       .  A
C868        F869   1.358       .  S
C873        C874   1.404       .  A
C873        C878   1.400       .  A
C873        H880   1.083       .  S
C874        C875   1.404       .  A
C875        C876   1.401       .  A
C875        F882   1.357       .  S
C876        C877   1.406       .  A
C876        H881   1.083       .  S
C877        C878   1.406       .  A
C878        F879   1.357       .  S
C883        C884   1.407       .  A
C883        C888   1.395       .  A
C883        H890   1.083       .  S
C884        C885   1.413       .  A
C885        C886   1.403       .  A
C885        F892   1.353       .  S
C886        C887   1.401       .  A
C886        H891   1.083       .  S
C887        C888   1.402       .  A
C888        F889   1.358       .  S
C893        C894   1.400       .  A
C893        C898   1.399       .  A
C893        H900   1.083       .  S
C894        C895   1.402       .  A
C895        C896   1.396       .  A
C895        F902   1.357       .  S
C896        C897   1.406       .  A
C896        H901   1.082       .  S
C897        C898   1.407       .  A
C898        F899   1.354       .  S
C903        C904   1.409       .  A
C903        C908   1.403       .  A
C903        H910   1.083       .  S
C904        C905   1.411       .  A
C905        C906   1.396       .  A
C905        F912   1.357       .  S
C906        C907   1.400       .  A
C906        H911   1.084       .  S
C907        C908   1.404       .  A
C908        F909   1.357       .  S
C913        C914   1.405       .  A
C913        C918   1.399       .  A
C913        H920   1.083       .  S
C914        C915   1.408       .  A
C915        C916   1.401       .  A
C915        F922   1.357       .  S
C916        C917   1.402       .  A
C916        H921   1.083       .  S
C917        C918   1.405       .  A
C918        F919   1.358       .  S
C923        C924   1.406       .  A
C923        C928   1.398       .  A
C923        H930   1.083       .  S
C924        C925   1.412       .  A
C925        C926   1.403       .  A
C925        F932   1.357       .  S
C926        C927   1.402       .  A
C926        H931   1.083       .  S
C927        C928   1.405       .  A
C928        F929   1.358       .  S
C933        C934   1.404       .  A
C933        C938   1.401       .  A
C933        H940   1.083       .  S
C934        C935   1.409       .  A
C935        C936   1.401       .  A
C935        F942   1.358       .  S
C936        C937   1.402       .  A
C936        H941   1.083       .  S
C937        C938   1.406       .  A
C938        F939   1.357       .  S
C943        C944   1.408       .  A
C943        C948   1.403       .  A
C943        H950   1.083       .  S
C944        C945   1.410       .  A
C945        C946   1.398       .  A
C945        F952   1.358       .  S
C946        C947   1.403       .  A
C946        H951   1.084       .  S
C947        C948   1.406       .  A
C948        F949   1.356       .  S
C953        C954   1.408       .  A
C953        C958   1.404       .  A
C953        H960   1.083       .  S
C954        C955   1.410       .  A
C955        C956   1.398       .  A
C955        F962   1.358       .  S
C956        C957   1.403       .  A
C956        H961   1.084       .  S
C957        C958   1.405       .  A
C958        F959   1.356       .  S
C963        C964   1.402       .  A
C963        C968   1.401       .  A
C963        H970   1.083       .  S
C964        C965   1.408       .  A
C965        C966   1.399       .  A
C965        F972   1.358       .  S
C966        C967   1.401       .  A
C966        H971   1.083       .  S
C967        C968   1.407       .  A
C968        F969   1.357       .  S
C973        C974   1.405       .  A
C973        C978   1.400       .  A
C973        H980   1.083       .  S
C974        C975   1.409       .  A
C975        C976   1.398       .  A
C975        F982   1.357       .  S
C976        C977   1.400       .  A
C976        H981   1.084       .  S
C977        C978   1.403       .  A
C978        F979   1.357       .  S
C983        C984   1.408       .  A
C983        C988   1.402       .  A
C983        H990   1.083       .  S
C984        C985   1.410       .  A
C985        C986   1.397       .  A
C985        F992   1.357       .  S
C986        C987   1.401       .  A
C986        H991   1.084       .  S
C987        C988   1.404       .  A
C988        F989   1.357       .  S
C993        C994   1.403       .  A
C993        C998   1.399       .  A
C993       H1000   1.083       .  S
C994        C995   1.399       .  A
C995        C996   1.395       .  A
C995       F1002   1.357       .  S
C996        C997   1.406       .  A
C996       H1001   1.083       .  S
C997        C998   1.404       .  A
C998        F999   1.357       .  S
C1003      C1004   1.402       .  A
C1003      C1008   1.400       .  A
C1003      H1010   1.083       .  S
C1004      C1005   1.406       .  A
C1005      C1006   1.400       .  A
C1005      F1012   1.356       .  S
C1006      C1007   1.403       .  A
C1006      H1011   1.083       .  S
C1007      C1008   1.407       .  A
C1008      F1009   1.356       .  S
C1013      C1014   1.404       .  A
C1013      C1018   1.400       .  A
C1013      H1020   1.083       .  S
C1014      C1015   1.403       .  A
C1015      C1016   1.400       .  A
C1015      F1022   1.357       .  S
C1016      C1017   1.408       .  A
C1016      H1021   1.083       .  S
C1017      C1018   1.408       .  A
C1018      F1019   1.357       .  S
C1023      C1024   1.404       .  A
C1023      C1028   1.393       .  A
C1023      H1030   1.083       .  S
C1024      C1025   1.411       .  A
C1025      C1026   1.411       .  A
C1025      F1032   1.356       .  S
C1026      C1027   1.411       .  A
C1026      H1031   1.082       .  S
C1027      C1028   1.408       .  A
C1028      F1029   1.358       .  S
C1033      C1034   1.407       .  A
C1033      C1038   1.394       .  A
C1033      H1040   1.083       .  S
C1034      C1035   1.405       .  A
C1035      C1036   1.400       .  A
C1035      F1042   1.356       .  S
C1036      C1037   1.403       .  A
C1036      H1041   1.083       .  S
C1037      C1038   1.398       .  A
C1038      F1039   1.357       .  S
C1043      C1044   1.404       .  A
C1043      C1048   1.401       .  A
C1043      H1050   1.083       .  S
C1044      C1045   1.406       .  A
C1045      C1046   1.400       .  A
C1045      F1052   1.357       .  S
C1046      C1047   1.406       .  A
C1046      H1051   1.083       .  S
C1047      C1048   1.408       .  A
C1048      F1049   1.357       .  S
C1053      C1054   1.410       .  A
C1053      C1058   1.402       .  A
C1053      H1060   1.083       .  S
C1054      C1055   1.407       .  A
C1055      C1056   1.399       .  A
C1055      F1062   1.357       .  S
C1056      C1057   1.403       .  A
C1056      H1061   1.083       .  S
C1057      C1058   1.402       .  A
C1058      F1059   1.357       .  S
C1063      C1064   1.403       .  A
C1063      C1068   1.400       .  A
C1063      H1070   1.083       .  S
C1064      C1065   1.407       .  A
C1065      C1066   1.404       .  A
C1065      F1072   1.357       .  S
C1066      C1067   1.406       .  A
C1066      H1071   1.083       .  S
C1067      C1068   1.409       .  A
C1068      F1069   1.358       .  S
C1073      C1074   1.408       .  A
C1073      C1078   1.401       .  A
C1073      H1080   1.083       .  S
C1074      C1075   1.408       .  A
C1075      C1076   1.401       .  A
C1075      F1082   1.357       .  S
C1076      C1077   1.402       .  A
C1076      H1081   1.083       .  S
C1077      C1078   1.402       .  A
C1078      F1079   1.358       .  S
C1083      C1084   1.401       .  A
C1083      C1088   1.400       .  A
C1083      H1090   1.083       .  S
C1084      C1085   1.401       .  A
C1085      C1086   1.397       .  A
C1085      F1092   1.357       .  S
C1086      C1087   1.406       .  A
C1086      H1091   1.082       .  S
C1087      C1088   1.408       .  A
C1088      F1089   1.354       .  S
C1093      C1094   1.405       .  A
C1093      C1098   1.407       .  A
C1093      H1100   1.083       .  S
C1094      C1095   1.408       .  A
C1095      C1096   1.398       .  A
C1095      F1102   1.358       .  S
C1096      C1097   1.405       .  A
C1096      H1101   1.083       .  S
C1097      C1098   1.412       .  A
C1098      F1099   1.357       .  S
C1103      C1104   1.406       .  A
C1103      C1108   1.397   1_556  A
C1103      H1110   1.083       .  S
C1104      C1105   1.412       .  A
C1105      C1106   1.406   1_556  A
C1105      F1112   1.354       .  S
C1106      C1107   1.403       .  A
C1106      H1111   1.083       .  S
C1107      C1108   1.403       .  A
C1108      F1109   1.358       .  S
C1113      C1114   1.404       .  A
C1113      C1118   1.399       .  A
C1113      H1120   1.083       .  S
C1114      C1115   1.406       .  A
C1115      C1116   1.404       .  A
C1115      F1122   1.356       .  S
C1116      C1117   1.408       .  A
C1116      H1121   1.083       .  S
C1117      C1118   1.409       .  A
C1118      F1119   1.357       .  S
C1123      C1124   1.403       .  A
C1123      C1128   1.406   1_556  A
C1123      H1130   1.083       .  S
C1124      C1125   1.403       .  A
C1125      C1126   1.397       .  A
C1125      F1132   1.358       .  S
C1126      C1127   1.406   1_556  A
C1126      H1131   1.083   1_556  S
C1127      C1128   1.411       .  A
C1128      F1129   1.354       .  S
C1133      C1134   1.406       .  A
C1133      C1138   1.397       .  A
C1133      H1140   1.082       .  S
C1134      C1135   1.407       .  A
C1135      C1136   1.398       .  A
C1135      F1142   1.353       .  S
C1136      C1137   1.400       .  A
C1136      H1141   1.083       .  S
C1137      C1138   1.402       .  A
C1138      F1139   1.357       .  S
C1143      C1144   1.407       .  A
C1143      C1148   1.401       .  A
C1143      H1150   1.083       .  S
C1144      C1145   1.407       .  A
C1145      C1146   1.402       .  A
C1145      F1152   1.357       .  S
C1146      C1147   1.404       .  A
C1146      H1151   1.083       .  S
C1147      C1148   1.403       .  A
C1148      F1149   1.357       .  S
C1153      C1154   1.402       .  A
C1153      C1158   1.399       .  A
C1153      H1160   1.083       .  S
C1154      C1155   1.402       .  A
C1155      C1156   1.399       .  A
C1155      F1162   1.358       .  S
C1156      C1157   1.406       .  A
C1156      H1161   1.083       .  S
C1157      C1158   1.407       .  A
C1158      F1159   1.357       .  S
C1163      C1164   1.399       .  A
C1163      C1168   1.397       .  A
C1163      H1170   1.083       .  S
C1164      C1165   1.402       .  A
C1165      C1166   1.400       .  A
C1165      F1172   1.357       .  S
C1166      C1167   1.407       .  A
C1166      H1171   1.082       .  S
C1167      C1168   1.406       .  A
C1168      F1169   1.353       .  S
C1173      C1174   1.401       .  A
C1173      C1178   1.396       .  A
C1173      H1180   1.084       .  S
C1174      C1175   1.405       .  A
C1175      C1176   1.403       .  A
C1175      F1182   1.356       .  S
C1176      C1177   1.408       .  A
C1176      H1181   1.083       .  S
C1177      C1178   1.410       .  A
C1178      F1179   1.358       .  S
C1183      C1184   1.406   1_455  A
C1183      C1188   1.396       .  A
C1183      H1190   1.083       .  S
C1184      C1185   1.411       .  A
C1185      C1186   1.404   1_655  A
C1185      F1192   1.354       .  S
C1186      C1187   1.402       .  A
C1186      H1191   1.083       .  S
C1187      C1188   1.402       .  A
C1188      F1189   1.358       .  S
C1193      C1194   1.402   1_455  A
C1193      C1198   1.401       .  A
C1193      H1200   1.083       .  S
C1194      C1195   1.403       .  A
C1195      C1196   1.398   1_655  A
C1195      F1202   1.358       .  S
C1196      C1197   1.405       .  A
C1196      H1201   1.083       .  S
C1197      C1198   1.408       .  A
C1198      F1199   1.355       .  S
C1203      C1204   1.406       .  A
C1203      C1208   1.399       .  A
C1203      H1210   1.078       .  S
C1204      C1205   1.409       .  A
C1205      C1206   1.397       .  A
C1205      F1212   1.356       .  S
C1206      C1207   1.400       .  A
C1206      H1211   1.083       .  S
C1207      C1208   1.401       .  A
C1208      F1209   1.357       .  S
C1213      C1214   1.405       .  A
C1213      C1218   1.396       .  A
C1213      H1220   1.083       .  S
C1214      C1215   1.406       .  A
C1215      C1216   1.400       .  A
C1215      F1222   1.354       .  S
C1216      C1217   1.401       .  A
C1216      H1221   1.083       .  S
C1217      C1218   1.401       .  A
C1218      F1219   1.357       .  S
C1223      C1224   1.407       .  A
C1223      C1228   1.403       .  A
C1223      H1230   1.081       .  S
C1224      C1225   1.407       .  A
C1225      C1226   1.397       .  A
C1225      F1232   1.357       .  S
C1226      C1227   1.401       .  A
C1226      H1231   1.083       .  S
C1227      C1228   1.405       .  A
C1228      F1229   1.357       .  S
C1233      C1234   1.404       .  A
C1233      C1238   1.405       .  A
C1233      H1240   1.083       .  S
C1234      C1235   1.403       .  A
C1235      C1236   1.395       .  A
C1235      F1242   1.358       .  S
C1236      C1237   1.407       .  A
C1236      H1241   1.083       .  S
C1237      C1238   1.411       .  A
C1238      F1239   1.357       .  S
C1243      C1244   1.400       .  A
C1243      C1248   1.396       .  A
C1243      H1250   1.084       .  S
C1244      C1245   1.403       .  A
C1245      C1246   1.403       .  A
C1245      F1252   1.357       .  S
C1246      C1247   1.408       .  A
C1246      H1251   1.079       .  S
C1247      C1248   1.408       .  A
C1248      F1249   1.358       .  S
C1253      C1254   1.405       .  A
C1253      C1258   1.398       .  A
C1253      H1260   1.083       .  S
C1254      C1255   1.406       .  A
C1255      C1256   1.398       .  A
C1255      F1262   1.355       .  S
C1256      C1257   1.400       .  A
C1256      H1261   1.083       .  S
C1257      C1258   1.401       .  A
C1258      F1259   1.357       .  S
C1263      C1264   1.403       .  A
C1263      C1268   1.399       .  A
C1263      H1270   1.083       .  S
C1264      C1265   1.405       .  A
C1265      C1266   1.400       .  A
C1265      F1272   1.357       .  S
C1266      C1267   1.405       .  A
C1266      H1271   1.083       .  S
C1267      C1268   1.405       .  A
C1268      F1269   1.357       .  S
C1273      C1274   1.409       .  A
C1273      C1278   1.402       .  A
C1273      H1280   1.083       .  S
C1274      C1275   1.411       .  A
C1275      C1276   1.398       .  A
C1275      F1282   1.357       .  S
C1276      C1277   1.401       .  A
C1276      H1281   1.084       .  S
C1277      C1278   1.403       .  A
C1278      F1279   1.357       .  S
C1283      C1284   1.406       .  A
C1283      C1288   1.399       .  A
C1283      H1290   1.083       .  S
C1284      C1285   1.407       .  A
C1285      C1286   1.400       .  A
C1285      F1292   1.357       .  S
C1286      C1287   1.403       .  A
C1286      H1291   1.083       .  S
C1287      C1288   1.403       .  A
C1288      F1289   1.357       .  S
C1293      C1294   1.402       .  A
C1293      C1298   1.400       .  A
C1293      H1300   1.083       .  S
C1294      C1295   1.407       .  A
C1295      C1296   1.400       .  A
C1295      F1302   1.357       .  S
C1296      C1297   1.402       .  A
C1296      H1301   1.083       .  S
C1297      C1298   1.408       .  A
C1298      F1299   1.357       .  S
C1303      C1304   1.409       .  A
C1303      C1308   1.400       .  A
C1303      H1310   1.083       .  S
C1304      C1305   1.410       .  A
C1305      C1306   1.399       .  A
C1305      F1312   1.357       .  S
C1306      C1307   1.402       .  A
C1306      H1311   1.083       .  S
C1307      C1308   1.402       .  A
C1308      F1309   1.357       .  S
C1313      C1314   1.403       .  A
C1313      C1318   1.400       .  A
C1313      H1320   1.083       .  S
C1314      C1315   1.407       .  A
C1315      C1316   1.404       .  A
C1315      F1322   1.357       .  S
C1316      C1317   1.406       .  A
C1316      H1321   1.083       .  S
C1317      C1318   1.408       .  A
C1318      F1319   1.358       .  S
C1323      C1324   1.397       .  A
C1323      C1328   1.395       .  A
C1323      H1330   1.083       .  S
C1324      C1325   1.404       .  A
C1325      C1326   1.400       .  A
C1325      F1332   1.356       .  S
C1326      C1327   1.402       .  A
C1326      H1331   1.083       .  S
C1327      C1328   1.409       .  A
C1328      F1329   1.357       .  S
C1333      C1334   1.402       .  A
C1333      C1338   1.399       .  A
C1333      H1340   1.084       .  S
C1334      C1335   1.404       .  A
C1335      C1336   1.404       .  A
C1335      F1342   1.357       .  S
C1336      C1337   1.410       .  A
C1336      H1341   1.083       .  S
C1337      C1338   1.410       .  A
C1338      F1339   1.357       .  S
C1343      C1344   1.402       .  A
C1343      C1348   1.393       .  A
C1343      H1350   1.083       .  S
C1344      C1345   1.412       .  A
C1345      C1346   1.412       .  A
C1345      F1352   1.357       .  S
C1346      C1347   1.412       .  A
C1346      H1351   1.081       .  S
C1347      C1348   1.410       .  A
C1348      F1349   1.357       .  S
C1353      C1354   1.404       .  A
C1353      C1358   1.402       .  A
C1353      H1360   1.083       .  S
C1354      C1355   1.405       .  A
C1355      C1356   1.403       .  A
C1355      F1362   1.357       .  S
C1356      C1357   1.405       .  A
C1356      H1361   1.082       .  S
C1357      C1358   1.406       .  A
C1358      F1359   1.357       .  S
C1363      C1364   1.402       .  A
C1363      C1368   1.398       .  A
C1363      H1370   1.083       .  S
C1364      C1365   1.399       .  A
C1365      C1366   1.396       .  A
C1365      F1372   1.357       .  S
C1366      C1367   1.406       .  A
C1366      H1371   1.082       .  S
C1367      C1368   1.404       .  A
C1368      F1369   1.356       .  S
C1373      C1374   1.407       .  A
C1373      C1378   1.401       .  A
C1373      H1380   1.083       .  S
C1374      C1375   1.411       .  A
C1375      C1376   1.404       .  A
C1375      F1382   1.357       .  S
C1376      C1377   1.403       .  A
C1376      H1381   1.083       .  S
C1377      C1378   1.403       .  A
C1378      F1379   1.357       .  S
C1383      C1384   1.404       .  A
C1383      C1388   1.398       .  A
C1383      H1390   1.083       .  S
C1384      C1385   1.410       .  A
C1385      C1386   1.405       .  A
C1385      F1392   1.357       .  S
C1386      C1387   1.405       .  A
C1386      H1391   1.083       .  S
C1387      C1388   1.407       .  A
C1388      F1389   1.358       .  S
C1393      C1394   1.404       .  A
C1393      C1398   1.400       .  A
C1393      H1400   1.083       .  S
C1394      C1395   1.405       .  A
C1395      C1396   1.403       .  A
C1395      F1402   1.357       .  S
C1396      C1397   1.407       .  A
C1396      H1401   1.083       .  S
C1397      C1398   1.406       .  A
C1398      F1399   1.357       .  S
C1403      C1404   1.406       .  A
C1403      C1408   1.399       .  A
C1403      H1410   1.080       .  S
C1404      C1405   1.409       .  A
C1405      C1406   1.397       .  A
C1405      F1412   1.356       .  S
C1406      C1407   1.400       .  A
C1406      H1411   1.083       .  S
C1407      C1408   1.401       .  A
C1408      F1409   1.357       .  S
C1413      C1414   1.404       .  A
C1413      C1418   1.406       .  A
C1413      H1420   1.083       .  S
C1414      C1415   1.404       .  A
C1415      C1416   1.398       .  A
C1415      F1422   1.358       .  S
C1416      C1417   1.407       .  A
C1416      H1421   1.083       .  S
C1417      C1418   1.413       .  A
C1418      F1419   1.357       .  S
C1423      C1424   1.407       .  A
C1423      C1428   1.404       .  A
C1423      H1430   1.081       .  S
C1424      C1425   1.408       .  A
C1425      C1426   1.397   1_565  A
C1425      F1432   1.358       .  S
C1426      C1427   1.401       .  A
C1426      H1431   1.083       .  S
C1427      C1428   1.404   1_545  A
C1428      F1429   1.357   1_565  S
C1433      C1434   1.406       .  A
C1433      C1438   1.395       .  A
C1433      H1440   1.083       .  S
C1434      C1435   1.410       .  A
C1435      C1436   1.404       .  A
C1435      F1442   1.357       .  S
C1436      C1437   1.404       .  A
C1436      H1441   1.083       .  S
C1437      C1438   1.404       .  A
C1438      F1439   1.358       .  S
C1443      C1444   1.405       .  A
C1443      C1448   1.407   1_565  A
C1443      H1450   1.083       .  S
C1444      C1445   1.404       .  A
C1445      C1446   1.399       .  A
C1445      F1452   1.357       .  S
C1446      C1447   1.406   1_565  A
C1446      H1451   1.083       .  S
C1447      C1448   1.410       .  A
C1448      F1449   1.355       .  S
C1453      C1454   1.406       .  A
C1453      C1458   1.399       .  A
C1453      H1460   1.083       .  S
C1454      C1455   1.406       .  A
C1455      C1456   1.396       .  A
C1455      F1462   1.353       .  S
C1456      C1457   1.399       .  A
C1456      H1461   1.083       .  S
C1457      C1458   1.402       .  A
C1458      F1459   1.357       .  S
C1463      C1464   1.405       .  A
C1463      C1468   1.402       .  A
C1463      H1470   1.083       .  S
C1464      C1465   1.405       .  A
C1465      C1466   1.404       .  A
C1465      F1472   1.357       .  S
C1466      C1467   1.407       .  A
C1466      H1471   1.083       .  S
C1467      C1468   1.406       .  A
C1468      F1469   1.357       .  S
C1473      C1474   1.398       .  A
C1473      C1478   1.395       .  A
C1473      H1480   1.084       .  S
C1474      C1475   1.403       .  A
C1475      C1476   1.403       .  A
C1475      F1482   1.357       .  S
C1476      C1477   1.408       .  A
C1476      H1481   1.083       .  S
C1477      C1478   1.412       .  A
C1478      F1479   1.357       .  S
C1483      C1484   1.405       .  A
C1483      C1488   1.398       .  A
C1483      H1490   1.082       .  S
C1484      C1485   1.408       .  A
C1485      C1486   1.399       .  A
C1485      F1492   1.353       .  S
C1486      C1487   1.399       .  A
C1486      H1491   1.083       .  S
C1487      C1488   1.402       .  A
C1488      F1489   1.357       .  S
C1493      C1494   1.403       .  A
C1493      C1498   1.400       .  A
C1493      H1500   1.083       .  S
C1494      C1495   1.404       .  A
C1495      C1496   1.402       .  A
C1495      F1502   1.357       .  S
C1496      C1497   1.407       .  A
C1496      H1501   1.083       .  S
C1497      C1498   1.407       .  A
C1498      F1499   1.357       .  S
C1503      C1504   1.400       .  A
C1503      C1508   1.396       .  A
C1503      H1510   1.084       .  S
C1504      C1505   1.403       .  A
C1505      C1506   1.404   1_556  A
C1505      F1512   1.357       .  S
C1506      C1507   1.408       .  A
C1506      H1511   1.080       .  S
C1507      C1508   1.410   1_554  A
C1508      F1509   1.358   1_556  S
C1513      C1514   1.402       .  A
C1513      C1518   1.400       .  A
C1513      H1520   1.083       .  S
C1514      C1515   1.406       .  A
C1515      C1516   1.400       .  A
C1515      F1522   1.357       .  S
C1516      C1517   1.403       .  A
C1516      H1521   1.083       .  S
C1517      C1518   1.408       .  A
C1518      F1519   1.358       .  S
C1523      C1524   1.406       .  A
C1523      C1528   1.396   1_556  A
C1523      H1530   1.083       .  S
C1524      C1525   1.411       .  A
C1525      C1526   1.403   1_556  A
C1525      F1532   1.354       .  S
C1526      C1527   1.402       .  A
C1526      H1531   1.083       .  S
C1527      C1528   1.402       .  A
C1528      F1529   1.358       .  S
C1533      C1534   1.400       .  A
C1533      C1538   1.399       .  A
C1533      H1540   1.083       .  S
C1534      C1535   1.401       .  A
C1535      C1536   1.396       .  A
C1535      F1542   1.357       .  S
C1536      C1537   1.406       .  A
C1536      H1541   1.082       .  S
C1537      C1538   1.408       .  A
C1538      F1539   1.354       .  S
C1543      C1544   1.401       .  A
C1543      C1548   1.396       .  A
C1543      H1550   1.084       .  S
C1544      C1545   1.403       .  A
C1545      C1546   1.402       .  A
C1545      F1552   1.357       .  S
C1546      C1547   1.409       .  A
C1546      H1551   1.083       .  S
C1547      C1548   1.410       .  A
C1548      F1549   1.357       .  S
C1553      C1554   1.402       .  A
C1553      C1558   1.398       .  A
C1553      H1560   1.083       .  S
C1554      C1555   1.404       .  A
C1555      C1556   1.401       .  A
C1555      F1562   1.357       .  S
C1556      C1557   1.406       .  A
C1556      H1561   1.083       .  S
C1557      C1558   1.408       .  A
C1558      F1559   1.357       .  S
C1563      C1564   1.400       .  A
C1563      C1568   1.398       .  A
C1563      H1570   1.083       .  S
C1564      C1565   1.402       .  A
C1565      C1566   1.398       .  A
C1565      F1572   1.357       .  S
C1566      C1567   1.405       .  A
C1566      H1571   1.079       .  S
C1567      C1568   1.410       .  A
C1568      F1569   1.356       .  S
C1573      C1574   1.403       .  A
C1573      C1578   1.397       .  A
C1573      H1580   1.084       .  S
C1574      C1575   1.405       .  A
C1575      C1576   1.404       .  A
C1575      F1582   1.356       .  S
C1576      C1577   1.409       .  A
C1576      H1581   1.083       .  S
C1577      C1578   1.408       .  A
C1578      F1579   1.357       .  S
C1583      C1584   1.401       .  A
C1583      C1588   1.402       .  A
C1583      H1590   1.083       .  S
C1584      C1585   1.402       .  A
C1585      C1586   1.397       .  A
C1585      F1592   1.358       .  S
C1586      C1587   1.407       .  A
C1586      H1591   1.083       .  S
C1587      C1588   1.411       .  A
C1588      F1589   1.353       .  S
C1593      C1594   1.402       .  A
C1593      C1598   1.401       .  A
C1593      H1600   1.083       .  S
C1594      C1595   1.402       .  A
C1595      C1596   1.398       .  A
C1595      F1602   1.357       .  S
C1596      C1597   1.405       .  A
C1596      H1601   1.083       .  S
C1597      C1598   1.408       .  A
C1598      F1599   1.357       .  S
C1603      C1604   1.408       .  A
C1603      C1608   1.402       .  A
C1603      H1610   1.078       .  S
C1604      C1605   1.410       .  A
C1605      C1606   1.397       .  A
C1605      F1612   1.357       .  S
C1606      C1607   1.400       .  A
C1606      H1611   1.084       .  S
C1607      C1608   1.402       .  A
C1608      F1609   1.357       .  S
C1613      C1614   1.400       .  A
C1613      C1618   1.398       .  A
C1613      H1620   1.083       .  S
C1614      C1615   1.402       .  A
C1615      C1616   1.397       .  A
C1615      F1622   1.357       .  S
C1616      C1617   1.404       .  A
C1616      H1621   1.083       .  S
C1617      C1618   1.405       .  A
C1618      F1619   1.354       .  S
C1623      C1624   1.409       .  A
C1623      C1628   1.403       .  A
C1623      H1630   1.083       .  S
C1624      C1625   1.411       .  A
C1625      C1626   1.396       .  A
C1625      F1632   1.357       .  S
C1626      C1627   1.400       .  A
C1626      H1631   1.084       .  S
C1627      C1628   1.403       .  A
C1628      F1629   1.357       .  S
