geometry optimzed in LAMMPS
_audit_creation_date              2020-12-01 
_audit_creation_method            'lammps2cif' 
_symmetry_space_group_name_H-M    'P1' 
_symmetry_Int_Tables_number       1 
_symmetry_cell_setting            triclinic 
loop_ 
_symmetry_equiv_pos_as_xyz 
  x,y,z 
_cell_length_a                    43.21120203 
_cell_length_b                    43.15581171477602 
_cell_length_c                    43.329802611791415 
_cell_angle_alpha                 89.23952843317362 
_cell_angle_beta                  91.05254866773495 
_cell_angle_gamma                 91.72725804325027 
loop_ 
_atom_site_label 
_atom_site_type_symbol 
_atom_site_fract_x 
_atom_site_fract_y 
_atom_site_fract_z 
_atom_site_charge 
N1          N  0.79938794  0.21716231  0.00342474    -0.00400
C2          C  0.82609020  0.22259053  0.98739115     0.02200
C3          C  0.84918617  0.20395258  0.99912513    -0.20700
C4          C  0.83670665  0.18649267  0.02245063    -0.20900
C5          C  0.80605609  0.19450628  0.02462430     0.02100
H6          H  0.87237414  0.20162433  0.99065484     0.15800
H7          H  0.84922610  0.16995297  0.03642909     0.15900
N8          N  0.73676253  0.27628891  0.00578905    -0.00400
C9          C  0.70852493  0.27102090  0.99149945     0.02200
C10         C  0.68622969  0.28788186  0.00598931    -0.20700
C11         C  0.70088502  0.30444608  0.02881371    -0.20900
C12         C  0.73187726  0.29763569  0.02801576     0.02100
H13         H  0.66203716  0.28988862  0.99978578     0.15800
H14         H  0.68990254  0.31992059  0.04442411     0.15900
N15         N  0.78929623  0.99510073  0.21997179    -0.00400
C16         C  0.81726216  0.98120231  0.22204396     0.02200
C17         C  0.83763680  0.99536072  0.20150064    -0.20700
C18         C  0.82168776  0.01772032  0.18578006    -0.20900
C19         C  0.79197772  0.01683045  0.19706789     0.02100
H20         H  0.86100098  0.98877894  0.19666668     0.15800
H21         H  0.83090462  0.03312449  0.16806372     0.15900
N22         N  0.73183281  0.99306654  0.28475055    -0.00400
C23         C  0.72550943  0.01282325  0.30801242     0.02200
C24         C  0.69498659  0.00861089  0.31672235    -0.20700
C25         C  0.68230787  0.98529245  0.29904631    -0.20900
C26         C  0.70528648  0.97565010  0.27986864     0.02100
H27         H  0.68291530  0.02129043  0.33394280     0.15800
H28         H  0.65928732  0.97508262  0.30152742     0.15900
O29         O  0.74291472  0.33859224  0.39738634    -0.68700
O30         O  0.75148189  0.34296305  0.31051308    -0.69000
O31         O  0.75170938  0.29808307  0.35333638    -0.68800
O32         O  0.74299968  0.38524242  0.35303818    -0.68800
O33         O  0.79299784  0.39097869  0.35804538    -0.68800
O34         O  0.80153597  0.30381774  0.35980188    -0.68800
O35         O  0.80147458  0.34816742  0.31575754    -0.68700
O36         O  0.79272271  0.34573002  0.40285233    -0.68900
V37         V  0.74822034  0.34149300  0.35383849     1.35200
V38         V  0.79618771  0.34725559  0.35919470     1.35200
C39         C  0.76672762  0.33932064  0.41473367     0.80500
C40         C  0.77777296  0.34597023  0.29836183     0.80600
C41         C  0.77796911  0.28616140  0.35658000     0.80400
C42         C  0.76693916  0.40281389  0.35313124     0.80400
O43         O  0.73037705  0.35172515  0.11071301    -0.68700
O44         O  0.73075759  0.34555429  0.19774505    -0.69000
O45         O  0.73545558  0.39234128  0.15815244    -0.68800
O46         O  0.72571330  0.30517969  0.15151398    -0.68800
O47         O  0.77562713  0.30142235  0.15625535    -0.68800
O48         O  0.78530250  0.38919798  0.15372079    -0.68800
O49         O  0.78111737  0.34632497  0.19837710    -0.68700
O50         O  0.77957403  0.34265510  0.11042310    -0.68900
V51         V  0.73155092  0.34877894  0.15434902     1.35200
V52         V  0.77957787  0.34513297  0.15452771     1.35200
C53         C  0.75415114  0.34530873  0.09578711     0.80500
C54         C  0.75594617  0.34576639  0.21287069     0.80600
C55         C  0.76200089  0.40540504  0.15855104     0.80400
C56         C  0.74909376  0.28842213  0.15366033     0.80400
O57         O  0.79152822  0.10109066  0.16100155    -0.68700
O58         O  0.79293636  0.18828058  0.15931402    -0.69000
O59         O  0.78115478  0.14435034  0.20180724    -0.68800
O60         O  0.80276213  0.14522315  0.11760002    -0.68800
O61         O  0.75423611  0.14857014  0.10419635    -0.68800
O62         O  0.73241408  0.14029741  0.18872725    -0.68800
O63         O  0.74340967  0.18793379  0.14940685    -0.68700
O64         O  0.74361641  0.09953763  0.14469124    -0.68900
V65         V  0.79111998  0.14465348  0.15954873     1.35200
V66         V  0.74427661  0.14395081  0.14682493     1.35200
C67         C  0.76732988  0.08544420  0.15431142     0.80500
C68         C  0.76850961  0.20296897  0.15478997     0.80600
C69         C  0.75315514  0.14147648  0.20960943     0.80400
C70         C  0.78240379  0.14925380  0.09673837     0.80400
O71         O  0.72231498  0.09995843  0.35430524    -0.68700
O72         O  0.73018744  0.18660936  0.34573570    -0.69000
O73         O  0.73318133  0.13915642  0.30737551    -0.68800
O74         O  0.72033095  0.14890123  0.39333206    -0.68800
O75         O  0.76923929  0.14171665  0.40246028    -0.68800
O76         O  0.78288188  0.14126458  0.31634247    -0.68800
O77         O  0.77892432  0.18521726  0.35903989    -0.68700
O78         O  0.77234450  0.09662136  0.35790343    -0.68900
V79         V  0.72741522  0.14342737  0.35051138     1.35200
V80         V  0.77497008  0.14108465  0.35898343     1.35200
C81         C  0.74590156  0.08345180  0.35445449     0.80500
C82         C  0.75541073  0.20072599  0.35165935     0.80600
C83         C  0.76051206  0.13975173  0.29730745     0.80400
C84         C  0.74290318  0.14819039  0.41234522     0.80400
N85         N  0.78685038  0.26800409  0.50330251    -0.00400
C86         C  0.78545969  0.29559847  0.48736927     0.02200
C87         C  0.80944903  0.31539823  0.49705000    -0.20700
C88         C  0.82614409  0.29996495  0.51897538    -0.20900
C89         C  0.81230683  0.27082681  0.52242058     0.02100
H90         H  0.81559786  0.33819814  0.48801642     0.15800
H91         H  0.84601418  0.30960218  0.53144955     0.15900
N92         N  0.71635473  0.21286483  0.50356364    -0.00400
C93         C  0.71712911  0.18694714  0.48565847     0.02200
C94         C  0.69424688  0.16572935  0.49458508    -0.20700
C95         C  0.67881682  0.17853775  0.51814034    -0.20900
C96         C  0.69229808  0.20756985  0.52328238     0.02100
H97         H  0.68820328  0.14363596  0.48423861     0.15800
H98         H  0.66013656  0.16714033  0.53058729     0.15900
O99         O  0.85265899  0.89147905  0.21544466    -0.68700
O100        O  0.86100717  0.80426198  0.21462963    -0.69000
O101        O  0.81512904  0.84280859  0.22401367    -0.68800
O102        O  0.89994028  0.85249726  0.20564077    -0.68800
O103        O  0.91184358  0.84617914  0.25422126    -0.68800
O104        O  0.82616174  0.84892825  0.27276439    -0.68800
O105        O  0.86668087  0.80439601  0.26458524    -0.68700
O106        O  0.87012183  0.89261752  0.26279406    -0.68900
V107        V  0.85759575  0.84795327  0.21578461     1.35200
V108        V  0.86871361  0.84827317  0.26276735     1.35200
C109        C  0.85884027  0.90673785  0.23957866     0.80500
C110        C  0.86365998  0.78939259  0.23978579     0.80600
C111        C  0.80616500  0.84494577  0.25142347     0.80400
C112        C  0.92015814  0.84737887  0.22635912     0.80400
O113        O  0.67446757  0.88355653  0.27877252    -0.68700
O114        O  0.66190160  0.79636762  0.27974675    -0.69000
O115        O  0.70971830  0.83582113  0.27003533    -0.68800
O116        O  0.62530155  0.84386938  0.28860398    -0.68800
O117        O  0.61298333  0.83836490  0.24008121    -0.68800
O118        O  0.69872346  0.84311855  0.22134333    -0.68800
O119        O  0.65629926  0.79746780  0.22977360    -0.68700
O120        O  0.65653607  0.88570818  0.23162633    -0.68900
V121        V  0.66745404  0.84003596  0.27843207     1.35200
V122        V  0.65618376  0.84132940  0.23149737     1.35200
C123        C  0.66842131  0.89944262  0.25486199     0.80500
C124        C  0.65846876  0.78200763  0.25469191     0.80600
C125        C  0.71869195  0.83946804  0.24264250     0.80400
C126        C  0.60474663  0.83926606  0.26790185     0.80400
O127        O  0.90589430  0.64900329  0.24964511    -0.68700
O128        O  0.81806399  0.64316660  0.23964272    -0.69000
O129        O  0.86102317  0.68951748  0.24271319    -0.68800
O130        O  0.86208300  0.60135942  0.24638593    -0.68800
O131        O  0.85683493  0.60317956  0.29615284    -0.68800
O132        O  0.85680326  0.69075606  0.29259791    -0.68800
O133        O  0.81339560  0.64518769  0.28944944    -0.68700
O134        O  0.90035930  0.64879838  0.29943427    -0.68900
V135        V  0.86177505  0.64564558  0.24550721     1.35200
V136        V  0.85700464  0.64688487  0.29337782     1.35200
C137        C  0.91780375  0.65120021  0.27646472     0.80500
C138        C  0.80090988  0.64335760  0.26299254     0.80600
C139        C  0.85912425  0.70504434  0.26711624     0.80400
C140        C  0.85825508  0.58739759  0.27194909     0.80400
O141        O  0.61611132  0.64035614  0.20184207    -0.68700
O142        O  0.70383766  0.63996856  0.20557664    -0.69000
O143        O  0.65906464  0.59611644  0.20327364    -0.68800
O144        O  0.66106793  0.68375422  0.20396425    -0.68800
O145        O  0.65883792  0.68263064  0.25405324    -0.68800
O146        O  0.65895569  0.59445247  0.25345065    -0.68800
O147        O  0.70221301  0.63951208  0.25568202    -0.68700
O148        O  0.61427525  0.63910172  0.25196149    -0.68900
V149        V  0.65988665  0.63989464  0.20466537     1.35200
V150        V  0.65846483  0.63875806  0.25284017     1.35200
C151        C  0.60046747  0.64168247  0.22611654     0.80500
C152        C  0.71793551  0.63993365  0.23135064     0.80600
C153        C  0.66059831  0.58049955  0.22805856     0.80400
C154        C  0.65990870  0.69807640  0.22906934     0.80400
N155        N  0.79194575  0.49366698  0.28605019    -0.00400
C156        C  0.78747810  0.47811961  0.31339138     0.02200
C157        C  0.80735185  0.49040879  0.33589100    -0.20700
C158        C  0.82466179  0.51355458  0.32220468    -0.20900
C159        C  0.81517003  0.51499360  0.29159313     0.02100
H160        H  0.81054224  0.48237731  0.35945055     0.15800
H161        H  0.84204243  0.52808614  0.33368699     0.15900
N162        N  0.73146921  0.49298294  0.22176925    -0.00400
C163        C  0.70756938  0.51166365  0.21397504     0.02200
C164        C  0.69999040  0.50868973  0.18295847    -0.20700
C165        C  0.71923615  0.48742812  0.17130650    -0.20900
C166        C  0.73828247  0.47774998  0.19537689     0.02100
H167        H  0.68267334  0.52106001  0.16979553     0.15800
H168        H  0.71796279  0.47862353  0.14803586     0.15900
N169        N  0.00747279  0.77550320  0.21572410    -0.00400
C170        C  0.98693665  0.79721802  0.20644615     0.02200
C171        C  0.98709303  0.80042970  0.17459895    -0.20700
C172        C  0.00882263  0.78086299  0.16404967    -0.20900
C173        C  0.02148915  0.76608337  0.18965403     0.02100
H174        H  0.97294735  0.81532882  0.16030194     0.15800
H175        H  0.01608490  0.77945399  0.14035651     0.15900
N176        N  0.00946688  0.72248244  0.28528993    -0.00400
C177        C  0.98745897  0.70113755  0.29399703     0.02200
C178        C  0.98807744  0.69734674  0.32575778    -0.20700
C179        C  0.01163946  0.71617265  0.33688486    -0.20900
C180        C  0.02494924  0.73107741  0.31168171     0.02100
H181        H  0.97306060  0.68243734  0.33954656     0.15800
H182        H  0.01963703  0.71686024  0.36068349     0.15900
N183        N  0.22168053  0.76484655  0.00273142    -0.00400
C184        C  0.22509608  0.79166706  0.98582222     0.02200
C185        C  0.20566189  0.81378556  0.99680859    -0.20700
C186        C  0.18937855  0.80030713  0.02036872    -0.20900
C187        C  0.19902095  0.77011171  0.02337843     0.02100
H188        H  0.20193469  0.83677242  0.98744215     0.15800
H189        H  0.17238572  0.81167001  0.03391178     0.15900
N190        N  0.28654026  0.70791990  0.00541406    -0.00400
C191        C  0.28315970  0.68095608  0.98929226     0.02200
C192        C  0.30262155  0.65896987  0.00179745    -0.20700
C193        C  0.31888648  0.67273362  0.02552865    -0.20900
C194        C  0.30917316  0.70292777  0.02715334     0.02100
H195        H  0.30637200  0.63591098  0.99337401     0.15800
H196        H  0.33594959  0.66160512  0.04013455     0.15900
O197        O  0.40316352  0.72413577  0.35717143    -0.68700
O198        O  0.31639004  0.73510314  0.35813731    -0.69000
O199        O  0.35863717  0.73020241  0.31430327    -0.68800
O200        O  0.35933450  0.72963292  0.40223125    -0.68800
O201        O  0.37212819  0.77872384  0.40106343    -0.68800
O202        O  0.36167117  0.78058224  0.31415124    -0.68800
O203        O  0.32401008  0.78491604  0.36212233    -0.68700
O204        O  0.41007626  0.77400027  0.35177720    -0.68900
V205        V  0.35969764  0.73061805  0.35808202     1.35200
V206        V  0.36699018  0.77860753  0.35750799     1.35200
C207        C  0.42102202  0.74716262  0.35142031     0.80500
C208        C  0.30547768  0.76175618  0.36070988     0.80600
C209        C  0.35917447  0.75565036  0.29939403     0.80400
C210        C  0.36466489  0.75467185  0.41650121     0.80400
O211        O  0.16388907  0.76795707  0.40115410    -0.68700
O212        O  0.16246558  0.77832473  0.31351376    -0.69000
O213        O  0.11865221  0.77622293  0.35629464    -0.68800
O214        O  0.20637833  0.77051649  0.35745652    -0.68800
O215        O  0.20123334  0.72023629  0.35732744    -0.68800
O216        O  0.11477067  0.72724260  0.34530685    -0.68800
O217        O  0.16295797  0.72823000  0.30898877    -0.68700
O218        O  0.15314127  0.71887346  0.39501121    -0.68900
V219        V  0.16261696  0.77245464  0.35713378     1.35200
V220        V  0.15802785  0.72457926  0.35195404     1.35200
C221        C  0.15957142  0.74117026  0.41284043     0.80500
C222        C  0.16299432  0.75477480  0.29646930     0.80600
C223        C  0.10212964  0.75307999  0.34770539     0.80400
C224        C  0.21859318  0.74426091  0.35828727     0.80400
O225        O  0.15636646  0.72078682  0.10667738    -0.68700
O226        O  0.15388904  0.71241591  0.19428254    -0.69000
O227        O  0.11021862  0.71569989  0.14964754    -0.68800
O228        O  0.19832863  0.71729880  0.15216128    -0.68800
O229        O  0.19846118  0.76770865  0.15102862    -0.68800
O230        O  0.11161456  0.76497913  0.15957275    -0.68800
O231        O  0.15973836  0.76245747  0.19799184    -0.68700
O232        O  0.15080855  0.77038877  0.11140811    -0.68900
V233        V  0.15450190  0.71735789  0.15064268     1.35200
V234        V  0.15500271  0.76544750  0.15474139     1.35200
C235        C  0.15500349  0.74744614  0.09432715     0.80500
C236        C  0.15766930  0.73613857  0.21092194     0.80600
C237        C  0.09618612  0.73983794  0.15684411     0.80400
C238        C  0.21322690  0.74294533  0.15147724     0.80400
O239        O  0.39833122  0.75883239  0.15528427    -0.68700
O240        O  0.31105216  0.74901174  0.15670040    -0.69000
O241        O  0.35611787  0.75543620  0.19956862    -0.68800
O242        O  0.35153902  0.75153619  0.11152877    -0.68800
O243        O  0.36119254  0.70247565  0.11506741    -0.68800
O244        O  0.35517572  0.70504439  0.20179997    -0.68800
O245        O  0.31469844  0.69895021  0.15473013    -0.68700
O246        O  0.40199750  0.70925013  0.16343419    -0.68900
V247        V  0.35449941  0.75287149  0.15571843     1.35200
V248        V  0.35833717  0.70486757  0.15851642     1.35200
C249        C  0.41484564  0.73593865  0.16194323     0.80500
C250        C  0.29803648  0.72248627  0.15508457     0.80600
C251        C  0.35554693  0.73058889  0.21550215     0.80400
C252        C  0.35446343  0.72570995  0.09850339     0.80400
N253        N  0.51189353  0.76989277  0.28549411    -0.00400
C254        C  0.49713196  0.76387288  0.31266733     0.02200
C255        C  0.51154443  0.78061666  0.33620368    -0.20700
C256        C  0.53489787  0.79808419  0.32328545    -0.20900
C257        C  0.53441108  0.79179297  0.29203510     0.02100
H258        H  0.50443079  0.78213718  0.35993008     0.15800
H259        H  0.55045877  0.81380383  0.33568738     0.15900
N260        N  0.51027511  0.71106820  0.22124700    -0.00400
C261        C  0.49253919  0.71725015  0.19556844     0.02200
C262        C  0.50239355  0.70031567  0.17087142    -0.20700
C263        C  0.52602763  0.68264660  0.18147927    -0.20900
C264        C  0.53027138  0.68901643  0.21251336     0.02100
H265        H  0.49200159  0.69892825  0.14799967     0.15800
H266        H  0.53875325  0.66682119  0.16770516     0.15900
O267        O  0.26956932  0.83722843  0.89533626    -0.68700
O268        O  0.26772426  0.84211852  0.80790495    -0.69000
O269        O  0.26742634  0.88431844  0.85205821    -0.68800
O270        O  0.26909871  0.79609223  0.84987093    -0.68800
O271        O  0.21886129  0.79413323  0.84552691    -0.68800
O272        O  0.21746606  0.88058442  0.85696464    -0.68800
O273        O  0.21749303  0.84365856  0.80787913    -0.68700
O274        O  0.21956800  0.82990589  0.89479409    -0.68900
V275        V  0.26757709  0.83998608  0.85142752     1.35200
V276        V  0.21929402  0.83730248  0.85140165     1.35200
C277        C  0.24505093  0.83036326  0.90967236     0.80500
C278        C  0.24243181  0.84407706  0.79305143     0.80600
C279        C  0.24169677  0.89735217  0.85399708     0.80400
C280        C  0.24407150  0.78029144  0.84677740     0.80400
O281        O  0.24319469  0.88719668  0.65016905    -0.68700
O282        O  0.24651303  0.79917050  0.65147331    -0.69000
O283        O  0.24385670  0.84361493  0.69379422    -0.68800
O284        O  0.24559363  0.84130084  0.60612067    -0.68800
O285        O  0.29587950  0.84486938  0.60831474    -0.68800
O286        O  0.29417264  0.84659101  0.69568137    -0.68800
O287        O  0.29682609  0.80244032  0.65312157    -0.68700
O288        O  0.29353216  0.88981525  0.65148775    -0.68900
V289        V  0.24572076  0.84302175  0.65019062     1.35200
V290        V  0.29407643  0.84603162  0.65196375     1.35200
C291        C  0.26806524  0.90325183  0.65291855     0.80500
C292        C  0.27226471  0.78597351  0.65278236     0.80600
C293        C  0.26871685  0.84539556  0.70955238     0.80400
C294        C  0.27124269  0.84070041  0.59256456     0.80400
O295        O  0.24039202  0.63761975  0.89642774    -0.68700
O296        O  0.24570070  0.63730567  0.80900984    -0.69000
O297        O  0.24347235  0.59279872  0.85188242    -0.68800
O298        O  0.24321931  0.68107755  0.85186316    -0.68800
O299        O  0.29355979  0.68242580  0.85141273    -0.68800
O300        O  0.29316605  0.59536029  0.86073121    -0.68800
O301        O  0.29579248  0.63481201  0.81284726    -0.68700
O302        O  0.29043283  0.64404171  0.89963162    -0.68900
V303        V  0.24404297  0.63712401  0.85256354     1.35200
V304        V  0.29226443  0.63894703  0.85623017     1.35200
C305        C  0.26447478  0.64332784  0.91266107     0.80500
C306        C  0.27157071  0.63557716  0.79611114     0.80600
C307        C  0.26891053  0.57923890  0.85510529     0.80400
C308        C  0.26852573  0.69660035  0.85060668     0.80400
O309        O  0.27572739  0.59842017  0.65288540    -0.68700
O310        O  0.27494400  0.68657132  0.65415983    -0.69000
O311        O  0.27467496  0.64079551  0.69677282    -0.68800
O312        O  0.27613182  0.64552899  0.60894158    -0.68800
O313        O  0.22584773  0.64650207  0.60794281    -0.68800
O314        O  0.22442730  0.63630741  0.69480520    -0.68800
O315        O  0.22463385  0.68440960  0.65537252    -0.68700
O316        O  0.22556340  0.59735623  0.64771562    -0.68900
V317        V  0.27448609  0.64266203  0.65299740     1.35200
V318        V  0.22613565  0.64101002  0.65137832     1.35200
C319        C  0.25040671  0.58297618  0.65145994     0.80500
C320        C  0.24954918  0.70032011  0.65530111     0.80600
C321        C  0.24924527  0.63749326  0.71059800     0.80400
C322        C  0.25111929  0.64923936  0.59384751     0.80400
N323        N  0.29719292  0.77231874  0.50567010    -0.00400
C324        C  0.32285421  0.77543417  0.48779727     0.02200
C325        C  0.33706475  0.80423190  0.49234238    -0.20700
C326        C  0.32017228  0.81913849  0.51359489    -0.20900
C327        C  0.29577540  0.79932296  0.52172565     0.02100
H328        H  0.35713474  0.81409000  0.48083531     0.15800
H329        H  0.32619134  0.84164406  0.52304054     0.15900
N330        N  0.22549830  0.71935196  0.50558807    -0.00400
C331        C  0.22685805  0.69228922  0.52225078     0.02200
C332        C  0.20273339  0.67235500  0.51333647    -0.20700
C333        C  0.18606302  0.68727943  0.49085021    -0.20900
C334        C  0.20019344  0.71620809  0.48643189     0.02100
H335        H  0.19683784  0.64976648  0.52306360     0.15800
H336        H  0.16619582  0.67737531  0.47858868     0.15900
O337        O  0.86522298  0.27324022  0.89826569    -0.68700
O338        O  0.86362692  0.27639389  0.81084361    -0.69000
O339        O  0.82081819  0.27284662  0.85488607    -0.68800
O340        O  0.90941883  0.27590746  0.85300996    -0.68800
O341        O  0.90875899  0.22557538  0.85140001    -0.68800
O342        O  0.82165045  0.22251225  0.85370186    -0.68800
O343        O  0.86345505  0.22603758  0.80931109    -0.68700
O344        O  0.86551046  0.22290644  0.89688470    -0.68900
V345        V  0.86497448  0.27368471  0.85435517     1.35200
V346        V  0.86506533  0.22529955  0.85303063     1.35200
C347        C  0.86327387  0.24744498  0.91226596     0.80500
C348        C  0.86276880  0.25189137  0.79530917     0.80600
C349        C  0.80640845  0.24683237  0.85456500     0.80400
C350        C  0.92383608  0.25100370  0.84978869     0.80400
O351        O  0.66836200  0.22719276  0.90047198    -0.68700
O352        O  0.66311275  0.22885919  0.81300192    -0.69000
O353        O  0.70850070  0.23516356  0.85537296    -0.68800
O354        O  0.62128498  0.22105321  0.85699040    -0.68800
O355        O  0.61535246  0.27088405  0.85513643    -0.68800
O356        O  0.70242333  0.28488313  0.85765804    -0.68800
O357        O  0.65888589  0.27892225  0.81314816    -0.68700
O358        O  0.65990387  0.27658513  0.90081997    -0.68900
V359        V  0.66504131  0.22899005  0.85658746     1.35200
V360        V  0.65906846  0.27682654  0.85688444     1.35200
C361        C  0.66684398  0.25203769  0.91535657     0.80500
C362        C  0.66067879  0.25413924  0.79823870     0.80600
C363        C  0.72024337  0.26235588  0.85646242     0.80400
C364        C  0.60356738  0.24375032  0.85394215     0.80400
O365        O  0.90182121  0.21496105  0.64986583    -0.68700
O366        O  0.81308957  0.21384967  0.65004952    -0.69000
O367        O  0.85490590  0.21911233  0.60560760    -0.68800
O368        O  0.85858769  0.20914309  0.69303199    -0.68800
O369        O  0.85529526  0.25902800  0.69765201    -0.68800
O370        O  0.86110113  0.26891687  0.61111298    -0.68800
O371        O  0.81491424  0.26424166  0.65064420    -0.68700
O372        O  0.90196144  0.26422621  0.65958680    -0.68900
V373        V  0.85729262  0.21509286  0.64955941     1.35200
V374        V  0.85838444  0.26312017  0.65445951     1.35200
C375        C  0.91669668  0.23957792  0.65759572     0.80500
C376        C  0.79910689  0.23924713  0.64996282     0.80600
C377        C  0.85620147  0.24598188  0.59363435     0.80400
C378        C  0.85714364  0.23250534  0.71011132     0.80400
O379        O  0.61432253  0.25742735  0.65646340    -0.68700
O380        O  0.70129521  0.24670285  0.65468837    -0.69000
O381        O  0.65770597  0.25077734  0.61108576    -0.68800
O382        O  0.65935780  0.25324940  0.69887425    -0.68800
O383        O  0.65637910  0.20287054  0.70073469    -0.68800
O384        O  0.64552764  0.20159932  0.61382977    -0.68800
O385        O  0.69385289  0.19674038  0.65274388    -0.68700
O386        O  0.60781656  0.20767247  0.66318503    -0.68900
V387        V  0.65788524  0.25116908  0.65518804     1.35200
V388        V  0.65087546  0.20316769  0.65737894     1.35200
C389        C  0.59668887  0.23442632  0.66303868     0.80500
C390        C  0.71232401  0.21997216  0.65282174     0.80600
C391        C  0.65254677  0.22528734  0.59761090     0.80400
C392        C  0.65874819  0.22835272  0.71460587     0.80400
N393        N  0.50796980  0.26804647  0.79474082    -0.00400
C394        C  0.48716629  0.28919840  0.80375698     0.02200
C395        C  0.48882859  0.29252202  0.83547473    -0.20700
C396        C  0.51197552  0.27415887  0.84621897    -0.20900
C397        C  0.52416023  0.25989809  0.82088828     0.02100
H398        H  0.47493484  0.30700126  0.84957482     0.15800
H399        H  0.52059756  0.27365211  0.86980796     0.15900
N400        N  0.50638766  0.21054883  0.72948327    -0.00400
C401        C  0.48450032  0.18795814  0.72317799     0.02200
C402        C  0.48501980  0.18039589  0.69226612    -0.20700
C403        C  0.50823035  0.19798192  0.67927360    -0.20900
C404        C  0.52156123  0.21606064  0.70243143     0.02100
H405        H  0.47010422  0.16385935  0.68014218     0.15800
H406        H  0.51596568  0.19582605  0.65581293     0.15900
N407        N  0.22471384  0.99174644  0.79058769    -0.00400
C408        C  0.19777048  0.00750730  0.78811137     0.02200
C409        C  0.17668953  0.99567125  0.80921878    -0.20700
C410        C  0.19092449  0.97262155  0.82545955    -0.20900
C411        C  0.22050658  0.97074121  0.81403755     0.02100
H412        H  0.15386613  0.00399556  0.81375724     0.15800
H413        H  0.18033812  0.95841649  0.84336283     0.15900
N414        N  0.28205757  0.98998838  0.72557039    -0.00400
C415        C  0.28718417  0.97005419  0.70214185     0.02200
C416        C  0.31774547  0.97255715  0.69325767    -0.20700
C417        C  0.33174255  0.99517316  0.71081012    -0.20900
C418        C  0.30945664  0.00610514  0.73013347     0.02100
H419        H  0.32883426  0.95933053  0.67576019     0.15800
H420        H  0.35515976  0.00418893  0.70792293     0.15900
N421        N  0.01057933  0.21536471  0.78694742    -0.00400
C422        C  0.99686061  0.22339012  0.81376713     0.02200
C423        C  0.00885406  0.20612276  0.83810525    -0.20700
C424        C  0.02981325  0.18657004  0.82601813    -0.20900
C425        C  0.03027130  0.19220694  0.79449141     0.02100
H426        H  0.00172919  0.20607601  0.86191348     0.15800
H427        H  0.04336075  0.17013172  0.83911632     0.15900
N428        N  0.00894490  0.27341819  0.72123081    -0.00400
C429        C  0.03075953  0.29567567  0.71398564     0.02200
C430        C  0.02927472  0.30220511  0.68261147    -0.20700
C431        C  0.00562267  0.28403124  0.67038299    -0.20900
C432        C  0.99308144  0.26668936  0.69444516     0.02100
H433        H  0.04388033  0.31824341  0.66964264     0.15800
H434        H  0.99729494  0.28496484  0.64669406     0.15900
O435        O  0.40951214  0.34062169  0.75780646    -0.68700
O436        O  0.32271034  0.34313959  0.74229090    -0.69000
O437        O  0.36708897  0.38690003  0.74908089    -0.68800
O438        O  0.36398536  0.29880524  0.75060990    -0.68800
O439        O  0.35944650  0.29898043  0.80049245    -0.68800
O440        O  0.35525042  0.38663738  0.79763234    -0.68800
O441        O  0.31468496  0.33988565  0.79165177    -0.68700
O442        O  0.40118301  0.34522228  0.80682672    -0.68900
V443        V  0.36583862  0.34261968  0.75085824     1.35200
V444        V  0.35799629  0.34284497  0.79824132     1.35200
C445        C  0.41979887  0.34055607  0.78532026     0.80500
C446        C  0.30403704  0.34108103  0.76437241     0.80600
C447        C  0.35892865  0.40149588  0.77257874     0.80400
C448        C  0.36154043  0.28398290  0.77583212     0.80400
O449        O  0.14606415  0.09259551  0.73897740    -0.68700
O450        O  0.14758848  0.18000327  0.72713817    -0.69000
O451        O  0.18932330  0.13546643  0.72362560    -0.68800
O452        O  0.10344224  0.13916923  0.74321286    -0.68800
O453        O  0.11647370  0.13913111  0.79188525    -0.68800
O454        O  0.20064988  0.14646705  0.77138927    -0.68800
O455        O  0.15482131  0.18586982  0.77653907    -0.68700
O456        O  0.16370502  0.09910098  0.78581205    -0.68900
V457        V  0.14662534  0.13665325  0.73407559     1.35200
V458        V  0.15849045  0.14238729  0.78053043     1.35200
C459        C  0.15765109  0.08121662  0.76349984     0.80500
C460        C  0.15084677  0.19770302  0.74995412     0.80600
C461        C  0.20953224  0.14121950  0.74447518     0.80400
C462        C  0.09573223  0.14145371  0.77117933     0.80400
O463        O  0.15512105  0.38944317  0.77375918    -0.68700
O464        O  0.15281251  0.30220952  0.78682170    -0.69000
O465        O  0.19638243  0.34756086  0.79191670    -0.68800
O466        O  0.11068075  0.34241318  0.76793885    -0.68800
O467        O  0.12466838  0.34366298  0.72001423    -0.68800
O468        O  0.20775621  0.33438430  0.74532002    -0.68800
O469        O  0.15880195  0.29598591  0.73759239    -0.68700
O470        O  0.17488033  0.38236322  0.72870989    -0.68900
V471        V  0.15380214  0.34549931  0.77935311     1.35200
V472        V  0.16613349  0.33930751  0.73370368     1.35200
C473        C  0.16840221  0.40054979  0.75010595     0.80500
C474        C  0.15449043  0.28433627  0.76416394     0.80600
C475        C  0.21655426  0.34092805  0.77241764     0.80400
C476        C  0.10334123  0.34128573  0.73949249     0.80400
O477        O  0.40210378  0.14273546  0.77116432    -0.68700
O478        O  0.31473439  0.13958648  0.78091662    -0.69000
O479        O  0.35726962  0.09635528  0.77622444    -0.68800
O480        O  0.35859229  0.18444713  0.77618958    -0.68800
O481        O  0.35655849  0.18491914  0.72601140    -0.68800
O482        O  0.34554478  0.09743590  0.72721825    -0.68800
O483        O  0.30838081  0.14472207  0.73121621    -0.68700
O484        O  0.39472667  0.13783534  0.72168181    -0.68900
V485        V  0.35814416  0.14061273  0.77525530     1.35200
V486        V  0.35160473  0.14112018  0.72743975     1.35200
C487        C  0.41313680  0.14184957  0.74437461     0.80500
C488        C  0.29684241  0.14237236  0.75770183     0.80600
C489        C  0.34859873  0.08212318  0.75208346     0.80400
C490        C  0.35850613  0.19958847  0.75102787     0.80400
N491        N  0.29115805  0.49085957  0.78865306    -0.00400
C492        C  0.31872205  0.47615230  0.78788853     0.02200
C493        C  0.33892631  0.48847543  0.81004704    -0.20700
C494        C  0.32336663  0.51050845  0.82534615    -0.20900
C495        C  0.29393417  0.51127509  0.81233213     0.02100
H496        H  0.36186810  0.48085394  0.81621493     0.15800
H497        H  0.33274663  0.52453335  0.84401469     0.15900
N498        N  0.23645494  0.49067698  0.71929954    -0.00400
C499        C  0.23171195  0.51035356  0.69484511     0.02200
C500        C  0.20177220  0.50633388  0.68330746    -0.20700
C501        C  0.18781300  0.48336980  0.70049261    -0.20900
C502        C  0.20941015  0.47375653  0.72223954     0.02100
H503        H  0.19073724  0.51917829  0.66476156     0.15800
H504        H  0.16477199  0.47360662  0.69633392     0.15900
C505        C  0.26372171  0.48596851  0.76931618    -0.13400
C506        C  0.26450555  0.48917330  0.73825645    -0.28600
H507        H  0.24135884  0.48433702  0.78034540     0.15600
H508        H  0.28662598  0.49454626  0.72762441     0.16200
C509        C  0.20481425  0.44416774  0.73953098    -0.13400
C510        C  0.17600413  0.43384921  0.74690790    -0.28600
H511        H  0.22414849  0.42869760  0.74145203     0.15600
H512        H  0.15688970  0.44963751  0.74665963     0.16200
C513        C  0.24281749  0.14143104  0.73824995    -0.13400
C514        C  0.26338931  0.14274646  0.76190647    -0.28600
H515        H  0.25043086  0.13975787  0.71459841     0.15600
H516        H  0.25547192  0.14336446  0.78554892     0.16200
C517        C  0.15061172  0.23130342  0.74522101    -0.13400
C518        C  0.15204628  0.25076397  0.76901274    -0.28600
H519        H  0.14990180  0.24020080  0.72164099     0.15600
H520        H  0.15200637  0.24189774  0.79260826     0.16200
C521        C  0.35335537  0.43499995  0.77140560    -0.13400
C522        C  0.32432752  0.44581389  0.77333988    -0.28600
H523        H  0.37337793  0.45044163  0.77479579     0.15600
H524        H  0.30449235  0.43023989  0.76924916     0.16200
C525        C  0.27070186  0.34001237  0.75803268    -0.13400
C526        C  0.24969054  0.34141028  0.78042809    -0.28600
H527        H  0.26328980  0.33860384  0.73397280     0.15600
H528        H  0.25689206  0.34389435  0.80444581     0.16200
C529        C  0.36081362  0.24999554  0.77661647    -0.13400
C530        C  0.36047613  0.23355063  0.75055530    -0.28600
H531        H  0.35980149  0.23832346  0.79897177     0.15600
H532        H  0.36107480  0.24527077  0.72820356     0.16200
C533        C  0.05527794  0.30884979  0.73532242    -0.13400
C534        C  0.07135117  0.33527661  0.72808762    -0.28600
H535        H  0.06269816  0.29482876  0.75494109     0.15600
H536        H  0.06431197  0.34876740  0.70799562     0.16200
C537        C  0.05217885  0.17711195  0.77337689    -0.13400
C538        C  0.06425253  0.14926044  0.78061656    -0.28600
H539        H  0.06168629  0.19082386  0.75439997     0.15600
H540        H  0.05513524  0.13617841  0.80017454     0.16200
C541        C  0.00631197  0.22873794  0.75631999    -0.13400
C542        C  0.00487458  0.25962719  0.75159958    -0.28600
H543        H  0.00893266  0.21403708  0.73643933     0.15600
H544        H  0.00604656  0.27470760  0.77147199     0.16200
C545        C  0.31359391  0.03668580  0.74523720    -0.13400
C546        C  0.34218708  0.04846004  0.75226264    -0.28600
H547        H  0.29380351  0.05162403  0.74553391     0.15600
H548        H  0.36200423  0.03357926  0.75308196     0.16200
C549        C  0.16395406  0.04793078  0.76653414    -0.13400
C550        C  0.19293449  0.03769267  0.77201789    -0.28600
H551        H  0.14405014  0.03205629  0.76799105     0.15600
H552        H  0.21283711  0.05335167  0.76898995     0.16200
C553        C  0.25287906  0.99615818  0.77311095    -0.13400
C554        C  0.25329746  0.99248701  0.74217462    -0.28600
H555        H  0.27478867  0.99762274  0.78575007     0.15600
H556        H  0.23155666  0.98726501  0.73009294     0.16200
C557        C  0.46051145  0.17501192  0.74446500    -0.13400
C558        C  0.44624560  0.14736595  0.73835571    -0.28600
H559        H  0.45093584  0.19036121  0.76125671     0.15600
H560        H  0.45586678  0.13257918  0.72110869     0.16200
C561        C  0.46395193  0.30546776  0.78393349    -0.13400
C562        C  0.45180596  0.33226806  0.79343544    -0.28600
H563        H  0.45371116  0.29330293  0.76428572     0.15600
H564        H  0.46200466  0.34389189  0.81339316     0.16200
C565        C  0.51019596  0.25531057  0.76395505    -0.13400
C566        C  0.51217703  0.22444455  0.75946645    -0.28600
H567        H  0.50549243  0.27017067  0.74411851     0.15600
H568        H  0.51302671  0.20920912  0.77958217     0.16200
C569        C  0.56383619  0.23797518  0.67044990    -0.13400
C570        C  0.55304393  0.23042958  0.69885439    -0.28600
H571        H  0.54784324  0.24039862  0.65101530     0.15600
H572        H  0.56912810  0.22883972  0.71834356     0.16200
C573        C  0.95043836  0.24052777  0.66424358    -0.13400
C574        C  0.96196275  0.25094290  0.69169822    -0.28600
H575        H  0.96571701  0.23764759  0.64494814     0.15600
H576        H  0.94660997  0.25253361  0.71115825     0.16200
C577        C  0.76525149  0.24088788  0.64960779    -0.13400
C578        C  0.74598720  0.21602242  0.65106289    -0.28600
H579        H  0.75586695  0.26398807  0.64907577     0.15600
H580        H  0.75498273  0.19277905  0.65153357     0.16200
C581        C  0.56986149  0.23938231  0.84902761    -0.13400
C582        C  0.55608319  0.24776017  0.82195399    -0.28600
H583        H  0.55612452  0.23494048  0.86941015     0.15600
H584        H  0.57012254  0.25135368  0.80159095     0.16200
C585        C  0.65986389  0.25479036  0.76440927    -0.13400
C586        C  0.66036611  0.22850115  0.74835173    -0.28600
H587        H  0.65845553  0.27707859  0.75258295     0.15600
H588        H  0.66125838  0.20622498  0.76028386     0.16200
C589        C  0.95735415  0.25053175  0.84372189    -0.13400
C590        C  0.96746364  0.24036719  0.81630042    -0.28600
H591        H  0.97300252  0.25185977  0.86356270     0.15600
H592        H  0.95159460  0.23966192  0.79655234     0.16200
C593        C  0.77266555  0.24366195  0.85515382    -0.13400
C594        C  0.75395780  0.26770257  0.85628311    -0.28600
H595        H  0.76287614  0.22016871  0.85457424     0.15600
H596        H  0.76340674  0.29130348  0.85696719     0.16200
C597        C  0.86082785  0.25407433  0.76167655    -0.13400
C598        C  0.85835406  0.22902827  0.74377403    -0.28600
H599        H  0.86138825  0.27718662  0.75138097     0.15600
H600        H  0.85807512  0.20584370  0.75387039     0.16200
C601        C  0.27689964  0.74494926  0.50757066    -0.13400
C602        C  0.24577373  0.74668332  0.50779257    -0.28600
H603        H  0.28695450  0.72230047  0.50558647     0.15600
H604        H  0.23556811  0.76936444  0.50616234     0.16200
C605        C  0.24849487  0.54914519  0.65594010    -0.13400
C606        C  0.25256534  0.53640740  0.68438686    -0.28600
H607        H  0.23425431  0.53667421  0.63903746     0.15600
H608        H  0.26623036  0.54881993  0.70180515     0.16200
C609        C  0.24589451  0.68629687  0.55059195    -0.13400
C610        C  0.25043103  0.65687963  0.56062150    -0.28600
H611        H  0.25094359  0.70558853  0.56591649     0.15600
H612        H  0.24524672  0.63767639  0.54524642     0.16200
C613        C  0.27190410  0.54582314  0.85032915    -0.13400
C614        C  0.27098614  0.53438870  0.82141058    -0.28600
H615        H  0.28517992  0.53375577  0.86803444     0.15600
H616        H  0.25846199  0.54639455  0.80310903     0.16200
C617        C  0.27356937  0.63512147  0.76232649    -0.13400
C618        C  0.24798288  0.63557252  0.74435333    -0.28600
H619        H  0.29635650  0.63521453  0.75210136     0.15600
H620        H  0.22523485  0.63511845  0.75468492     0.16200
C621        C  0.26867355  0.93654501  0.65983449    -0.13400
C622        C  0.26539558  0.94594235  0.68926163    -0.28600
H623        H  0.28256055  0.95106808  0.64440374     0.15600
H624        H  0.25233812  0.93154594  0.70548129     0.16200
C625        C  0.27336822  0.83459819  0.55933209    -0.13400
C626        C  0.27624510  0.80534868  0.54891921    -0.28600
H627        H  0.28077233  0.85418178  0.54504407     0.15600
H628        H  0.26909974  0.78571401  0.56332876     0.16200
C629        C  0.27397644  0.75217304  0.65375260    -0.13400
C630        C  0.24840418  0.73411532  0.65584983    -0.28600
H631        H  0.29661768  0.74200247  0.65252663     0.15600
H632        H  0.22579787  0.74437065  0.65716913     0.16200
C633        C  0.23851482  0.93109640  0.85114108    -0.13400
C634        C  0.24178012  0.94562355  0.82349987    -0.28600
H635        H  0.22425009  0.94138751  0.86838737     0.15600
H636        H  0.25547937  0.93532869  0.80575188     0.16200
C637        C  0.24203671  0.84605469  0.75918987    -0.13400
C638        C  0.26844259  0.84575093  0.74335430    -0.28600
H639        H  0.21979309  0.84681907  0.74712657     0.15600
H640        H  0.29065324  0.84521593  0.75551396     0.16200
C641        C  0.24354970  0.74643783  0.84566469    -0.13400
C642        C  0.26942254  0.73046975  0.84874392    -0.28600
H643        H  0.22118360  0.73437138  0.84359775     0.15600
H644        H  0.29182411  0.74249904  0.85060399     0.16200
C645        C  0.50606449  0.75565707  0.25566464    -0.13400
C646        C  0.50901032  0.72481438  0.25167135    -0.28600
H647        H  0.50409411  0.77058802  0.23541830     0.15600
H648        H  0.51474127  0.71060166  0.27171136     0.16200
C649        C  0.46143765  0.73091344  0.19481957    -0.13400
C650        C  0.44837095  0.73970107  0.16760304    -0.28600
H651        H  0.44716842  0.72766056  0.21505965     0.15600
H652        H  0.46263564  0.74412084  0.14755219     0.16200
C653        C  0.24699897  0.74458784  0.15168899    -0.13400
C654        C  0.26421244  0.71929921  0.15361630    -0.28600
H655        H  0.25799950  0.76756505  0.15088099     0.15600
H656        H  0.25341907  0.69623501  0.15426155     0.16200
C657        C  0.19142372  0.73759888  0.46052146    -0.13400
C658        C  0.16344839  0.73457629  0.44610916    -0.28600
H659        H  0.20956555  0.75204225  0.45017471     0.15600
H660        H  0.14564129  0.71958417  0.45618432     0.16200
C661        C  0.16281208  0.75805010  0.26276947    -0.13400
C662        C  0.15952037  0.73311759  0.24459370    -0.28600
H663        H  0.16425077  0.78127129  0.25279875     0.15600
H664        H  0.15761969  0.70994191  0.25462470     0.16200
C665        C  0.36040819  0.75745080  0.45002207    -0.13400
C666        C  0.33189104  0.75455035  0.46244720    -0.28600
H667        H  0.37835390  0.77085036  0.46213219     0.15600
H668        H  0.31356575  0.74166944  0.45027319     0.16200
C669        C  0.45391836  0.74344241  0.34439205    -0.13400
C670        C  0.46509985  0.75080655  0.31612106    -0.28600
H671        H  0.46963042  0.74034983  0.36394571     0.15600
H672        H  0.44918606  0.75299302  0.29655806     0.16200
C673        C  0.35738222  0.75661136  0.26557156    -0.13400
C674        C  0.35575468  0.73051742  0.24928590    -0.28600
H675        H  0.35808180  0.77904840  0.25391732     0.15600
H676        H  0.35527484  0.70814079  0.26107034     0.16200
C677        C  0.25222570  0.74117801  0.35985373    -0.13400
C678        C  0.27189994  0.76576252  0.36142113    -0.28600
H679        H  0.26101568  0.71787207  0.35902883     0.15600
H680        H  0.26326483  0.78910829  0.36241341     0.16200
C681        C  0.32024888  0.72446051  0.05202623    -0.13400
C682        C  0.34865685  0.72102445  0.06518850    -0.28600
H683        H  0.30344366  0.73875329  0.06291618     0.15600
H684        H  0.36476866  0.70609862  0.05409692     0.16200
C685        C  0.26306078  0.64869499  0.94611770    -0.13400
C686        C  0.26864900  0.67721586  0.95805658    -0.28600
H687        H  0.26344979  0.62829303  0.96099151     0.15600
H688        H  0.26761270  0.69755971  0.94309138     0.16200
C689        C  0.18784877  0.74879423  0.04843339    -0.13400
C690        C  0.15997751  0.75308774  0.06122061    -0.28600
H691        H  0.20433861  0.73358326  0.05962549     0.15600
H692        H  0.14403460  0.76882931  0.05002000     0.16200
C693        C  0.23961429  0.79536970  0.95506631    -0.13400
C694        C  0.24559068  0.82403529  0.94313205    -0.28600
H695        H  0.24035303  0.77520796  0.94040143     0.15600
H696        H  0.24579311  0.84413865  0.95793000     0.16200
C697        C  0.23853469  0.73644632  0.00025694    -0.13400
C698        C  0.26977705  0.73630086  0.00100418    -0.28600
H699        H  0.22571776  0.71426508  0.00245899     0.15600
H700        H  0.28262205  0.75850490  0.00273846     0.16200
C701        C  0.06885361  0.75543087  0.34057231    -0.13400
C702        C  0.05679062  0.74482440  0.31354565    -0.28600
H703        H  0.05383593  0.76111741  0.35936730     0.15600
H704        H  0.07204768  0.74064572  0.29447623     0.16200
C705        C  0.05182916  0.75098775  0.18864869    -0.13400
C706        C  0.06267207  0.73950967  0.16221022    -0.28600
H707        H  0.06752148  0.75431209  0.20830183     0.15600
H708        H  0.04720701  0.73469784  0.14272733     0.16200
C709        C  0.01219003  0.76448335  0.24717727    -0.13400
C710        C  0.01386777  0.73399772  0.25409222    -0.28600
H711        H  0.00941773  0.78056745  0.26593117     0.15600
H712        H  0.01278413  0.71750728  0.23536601     0.16200
C713        C  0.77688423  0.48859765  0.25626737    -0.13400
C714        C  0.74596765  0.49061095  0.25222578    -0.28600
H715        H  0.79125208  0.48824036  0.23597462     0.15600
H716        H  0.73206942  0.49472842  0.27232786     0.16200
C717        C  0.55579923  0.67531112  0.23131022    -0.13400
C718        C  0.56722568  0.64774725  0.22320409    -0.28600
H719        H  0.56849566  0.69005455  0.24759091     0.15600
H720        H  0.55446676  0.63362610  0.20645744     0.16200
C721        C  0.66606460  0.54713615  0.22615799    -0.13400
C722        C  0.69419177  0.53592981  0.23343294    -0.28600
H723        H  0.65117972  0.53451814  0.20989989     0.15600
H724        H  0.70970329  0.54858914  0.24911293     0.16200
C725        C  0.95082304  0.65825547  0.28214132    -0.13400
C726        C  0.96362892  0.68588061  0.27367474    -0.28600
H727        H  0.96145418  0.64538403  0.30105063     0.15600
H728        H  0.95306351  0.69956024  0.25531656     0.16200
C729        C  0.85434228  0.55360201  0.27458279    -0.15800
C730        C  0.82609323  0.54003096  0.27019594    -0.28600
H731        H  0.87095023  0.54228521  0.28973126     0.15600
H732        H  0.80890983  0.55129730  0.25566732     0.16200
C733        C  0.76705596  0.64157666  0.26020472    -0.13400
C734        C  0.75195152  0.64063264  0.23292924    -0.28600
H735        H  0.75415046  0.64144701  0.28151020     0.15600
H736        H  0.76467699  0.64089089  0.21152218     0.16200
C737        C  0.57263159  0.83274322  0.27730052    -0.13400
C738        C  0.55755100  0.80569092  0.27034494    -0.28600
H739        H  0.56479994  0.84631912  0.29639585     0.15600
H740        H  0.56541361  0.79163090  0.25158335     0.16200
C741        C  0.65759966  0.74805285  0.25489910    -0.13400
C742        C  0.65961023  0.73201626  0.22880749    -0.28600
H743        H  0.65639255  0.73605906  0.27707504     0.15600
H744        H  0.66128192  0.74404870  0.20667982     0.16200
C745        C  0.95156693  0.83973037  0.21688736    -0.13400
C746        C  0.96479690  0.81317793  0.22643611    -0.28600
H747        H  0.95998414  0.85150202  0.19625280     0.15600
H748        H  0.95612658  0.80084529  0.24667127     0.16200
C749        C  0.86280666  0.75536966  0.24000157    -0.13400
C750        C  0.86005350  0.73905302  0.26640479    -0.28600
H751        H  0.86367760  0.74357651  0.21804124     0.15600
H752        H  0.85859530  0.75094911  0.28826205     0.16200
C753        C  0.77319847  0.84282731  0.25834569    -0.13400
C754        C  0.75166544  0.84020419  0.23574805    -0.28600
H755        H  0.76650652  0.84400856  0.28235041     0.15600
H756        H  0.75829074  0.83987877  0.21168629     0.16200
C757        C  0.68378749  0.22677718  0.55016758    -0.13400
C758        C  0.65614023  0.22179993  0.56406154    -0.28600
H759        H  0.70190517  0.24066993  0.56152246     0.15600
H760        H  0.63836724  0.20750672  0.55274799     0.16200
C761        C  0.82205319  0.24887352  0.54745579    -0.13400
C762        C  0.85081291  0.25161236  0.56039864    -0.28600
H763        H  0.80422705  0.23482085  0.55878886     0.15600
H764        H  0.86831143  0.26609494  0.54915296     0.16200
C765        C  0.73586289  0.24095493  0.50205955    -0.13400
C766        C  0.76705172  0.24031235  0.50000887    -0.28600
H767        H  0.72539638  0.26305889  0.50613851     0.15600
H768        H  0.77787252  0.21794060  0.49958842     0.16200
C769        C  0.73807164  0.15398108  0.44531300    -0.13400
C770        C  0.73447721  0.18281000  0.45662518    -0.28600
H771        H  0.73319309  0.13366726  0.45964059     0.15600
H772        H  0.74034227  0.20312794  0.44261885     0.16200
C773        C  0.74489322  0.13971285  0.24232295    -0.13400
C774        C  0.76706017  0.13932310  0.26431553    -0.28600
H775        H  0.72059395  0.13921224  0.24838129     0.15600
H776        H  0.79129450  0.13970237  0.25798169     0.16200
C777        C  0.76482019  0.43864542  0.16537651    -0.13400
C778        C  0.75594976  0.44891858  0.19315464    -0.28600
H779        H  0.76608572  0.45443242  0.14569611     0.15600
H780        H  0.75530289  0.43305376  0.21283978     0.16200
C781        C  0.74549329  0.25451168  0.15295017    -0.13400
C782        C  0.77030947  0.23682740  0.15576070    -0.28600
H783        H  0.72246201  0.24404565  0.15000524     0.15600
H784        H  0.79320582  0.24754527  0.15899145     0.16200
C785        C  0.76548178  0.43628240  0.34667277    -0.13400
C786        C  0.77080096  0.44773728  0.31789656    -0.28600
H787        H  0.76800522  0.45128437  0.36649899     0.15600
H788        H  0.76831632  0.43253500  0.29815639     0.16200
C789        C  0.76520741  0.33199267  0.44797785    -0.13400
C790        C  0.76719933  0.30235439  0.45861728    -0.28600
H791        H  0.77134153  0.35105657  0.46319930     0.15600
H792        H  0.76133601  0.28317335  0.44339558     0.16200
C793        C  0.78079609  0.25239100  0.35679884    -0.13400
C794        C  0.75587051  0.23447242  0.35024081    -0.28600
H795        H  0.80292004  0.24230832  0.36262152     0.15600
H796        H  0.73402368  0.24501027  0.34407772     0.16200
C797        C  0.78055303  0.34682475  0.26464455    -0.13400
C798        C  0.75507519  0.34536745  0.24657246    -0.28600
H799        H  0.80342670  0.34860782  0.25465596     0.15600
H800        H  0.73230072  0.34391833  0.25683742     0.16200
C801        C  0.74606185  0.03838607  0.32033871    -0.13400
C802        C  0.74141960  0.05002756  0.34871226    -0.28600
H803        H  0.76110381  0.05088152  0.30432291     0.15600
H804        H  0.72568410  0.03766805  0.36412912     0.16200
C805        C  0.70265324  0.94513910  0.26440897    -0.13400
C806        C  0.67477955  0.93320807  0.25498650    -0.28600
H807        H  0.72250835  0.93030828  0.26594524     0.15600
H808        H  0.65516638  0.94817541  0.25191680     0.16200
C809        C  0.76876368  0.04005247  0.18790725    -0.13400
C810        C  0.76794014  0.05167607  0.15880885    -0.28600
H811        H  0.75818931  0.05258489  0.20636695     0.15600
H812        H  0.77895733  0.03903929  0.14070060     0.16200
C813        C  0.82326065  0.95022678  0.23599292    -0.13400
C814        C  0.85245838  0.94009950  0.24008079    -0.28600
H815        H  0.80373134  0.93393025  0.23814367     0.15600
H816        H  0.87217419  0.95625138  0.23920772     0.16200
C817        C  0.76149572  0.98835430  0.23735474    -0.13400
C818        C  0.76076520  0.99226015  0.26822005    -0.28600
H819        H  0.73974694  0.98521282  0.22467648     0.15600
H820        H  0.78211851  0.99912511  0.28022344     0.16200
C821        C  0.75466192  0.31044753  0.05114545    -0.13400
C822        C  0.75049618  0.33907378  0.06252659    -0.28600
H823        H  0.76964027  0.29438532  0.06324778     0.15600
H824        H  0.73473478  0.35419174  0.05013783     0.16200
C825        C  0.70259474  0.25664056  0.96062911    -0.13400
C826        C  0.67334322  0.25303616  0.94883032    -0.28600
H827        H  0.72222475  0.25337183  0.94583083     0.15600
H828        H  0.65345630  0.25639148  0.96311268     0.16200
C829        C  0.79241247  0.15565222  0.06496185    -0.13400
C830        C  0.78538070  0.18199544  0.04939080    -0.28600
H831        H  0.81108223  0.14163645  0.05718465     0.15600
H832        H  0.76701531  0.19633286  0.05743555     0.16200
C833        C  0.85808777  0.24550435  0.94568489    -0.13400
C834        C  0.82954802  0.23922459  0.95723312    -0.28600
H835        H  0.87862915  0.24374454  0.96027879     0.15600
H836        H  0.80911049  0.24163887  0.94252006     0.16200
C837        C  0.76945303  0.23142155  0.99957919    -0.13400
C838        C  0.76634085  0.26247815  0.99989854    -0.28600
H839        H  0.74872723  0.21679674  0.00202096     0.15600
H840        H  0.78719178  0.27709856  0.00139684     0.16200
loop_ 
_geom_bond_atom_site_label_1 
_geom_bond_atom_site_label_2 
_geom_bond_distance 
_geom_bond_site_symmetry_2 
_ccdc_geom_bond_type 
N1            C5   1.366       .  A
N1            C2   1.370   1_554  A
N1          C837   1.455   1_554  S
C2            C3   1.386       .  A
C2          C834   1.490       .  S
C3            C4   1.362   1_556  A
C3            H6   1.081       .  S
C4            C5   1.384       .  A
C4            H7   1.081       .  S
C5          C830   1.494       .  S
N8           C12   1.365       .  A
N8            C9   1.372   1_554  A
N8          C838   1.455   1_554  S
C9           C10   1.389   1_556  A
C9          C825   1.497       .  S
C10          C11   1.363       .  A
C10          H13   1.080   1_554  S
C11          C12   1.381       .  A
C11          H14   1.082       .  S
C12         C821   1.492       .  S
N15          C19   1.360   1_565  A
N15          C16   1.366       .  A
N15         C817   1.450       .  S
C16          C17   1.387       .  A
C16         C813   1.488       .  S
C17          C18   1.369   1_565  A
C17          H20   1.082       .  S
C18          C19   1.381       .  A
C18          H21   1.082       .  S
C19         C809   1.484       .  S
N22          C26   1.367       .  A
N22          C23   1.365   1_565  A
N22         C818   1.454       .  S
C23          C24   1.385       .  A
C23         C801   1.493       .  S
C24          C25   1.368   1_545  A
C24          H27   1.082       .  S
C25          C26   1.383       .  A
C25          H28   1.082       .  S
C26         C805   1.486       .  S
O29          V37   1.907       .  S
O29          C39   1.263       .  A
O30          V37   1.885       .  S
O30          C40   1.263       .  A
O31          V37   1.884       .  S
O31          C41   1.265       .  A
O32          V37   1.908       .  S
O32          C42   1.264       .  A
O33          V38   1.896       .  S
O33          C42   1.264       .  A
O34          V38   1.895       .  S
O34          C41   1.260       .  A
O35          V38   1.900       .  S
O35          C40   1.262       .  A
O36          V38   1.900       .  S
O36          C39   1.266       .  A
V37          V38   2.089       .  T
C39         C789   1.473       .  S
C40         C797   1.468       .  S
C41         C793   1.466       .  S
C42         C785   1.471       .  S
O43          V51   1.893       .  S
O43          C53   1.264       .  A
O44          V51   1.885       .  S
O44          C54   1.260       .  A
O45          V51   1.892       .  S
O45          C55   1.263       .  A
O46          V51   1.896       .  S
O46          C56   1.261       .  A
O47          V52   1.890       .  S
O47          C56   1.265       .  A
O48          V52   1.910       .  S
O48          C55   1.265       .  A
O49          V52   1.901       .  S
O49          C54   1.265       .  A
O50          V52   1.915       .  S
O50          C53   1.266       .  A
V51          V52   2.086       .  T
C53         C822   1.474       .  S
C54         C798   1.461       .  S
C55         C777   1.470       .  S
C56         C781   1.468       .  S
O57          V65   1.881       .  S
O57          C67   1.259       .  A
O58          V65   1.882       .  S
O58          C68   1.258       .  A
O59          V65   1.888       .  S
O59          C69   1.264       .  A
O60          V65   1.894       .  S
O60          C70   1.264       .  A
O61          V66   1.911       .  S
O61          C70   1.264       .  A
O62          V66   1.899       .  S
O62          C69   1.262       .  A
O63          V66   1.904       .  S
O63          C68   1.267       .  A
O64          V66   1.919       .  S
O64          C67   1.268       .  A
V65          V66   2.088       .  T
C67         C810   1.469       .  S
C68         C782   1.462       .  S
C69         C773   1.469       .  S
C70         C829   1.471       .  S
O71          V79   1.888       .  S
O71          C81   1.261       .  A
O72          V79   1.873       .  S
O72          C82   1.257       .  A
O73          V79   1.902       .  S
O73          C83   1.266       .  A
O74          V79   1.905       .  S
O74          C84   1.266       .  A
O75          V80   1.905       .  S
O75          C84   1.264       .  A
O76          V80   1.885       .  S
O76          C83   1.260       .  A
O77          V80   1.907       .  S
O77          C82   1.267       .  A
O78          V80   1.920       .  S
O78          C81   1.268       .  A
V79          V80   2.086       .  T
C81         C802   1.473       .  S
C82         C794   1.456       .  S
C83         C774   1.463       .  S
C84         C769   1.473       .  S
N85          C89   1.368       .  A
N85          C86   1.371       .  A
N85         C766   1.456       .  S
C86          C87   1.386       .  A
C86         C790   1.493       .  S
C87          C88   1.361       .  A
C87          H90   1.082       .  S
C88          C89   1.383       .  A
C88          H91   1.082       .  S
C89         C761   1.494       .  S
N92          C96   1.370       .  A
N92          C93   1.371       .  A
N92         C765   1.457       .  S
C93          C94   1.384       .  A
C93         C770   1.492       .  S
C94          C95   1.362       .  A
C94          H97   1.082       .  S
C95          C96   1.385       .  A
C95          H98   1.081       .  S
C96         C757   1.496       .  S
O99         V107   1.897       .  S
O99         C109   1.263       .  A
O100        V107   1.897       .  S
O100        C110   1.263       .  A
O101        V107   1.882       .  S
O101        C111   1.261       .  A
O102        V107   1.893       .  S
O102        C112   1.263       .  A
O103        V108   1.912       .  S
O103        C112   1.266       .  A
O104        V108   1.898       .  S
O104        C111   1.264       .  A
O105        V108   1.894       .  S
O105        C110   1.265       .  A
O106        V108   1.913       .  S
O106        C109   1.267       .  A
V107        V108   2.083       .  T
C109        C814   1.475       .  S
C110        C749   1.468       .  S
C111        C753   1.461       .  S
C112        C745   1.473       .  S
O113        V121   1.894       .  S
O113        C123   1.262       .  A
O114        V121   1.893       .  S
O114        C124   1.261       .  A
O115        V121   1.883       .  S
O115        C125   1.262       .  A
O116        V121   1.894       .  S
O116        C126   1.264       .  A
O117        V122   1.910       .  S
O117        C126   1.265       .  A
O118        V122   1.897       .  S
O118        C125   1.263       .  A
O119        V122   1.896       .  S
O119        C124   1.265       .  A
O120        V122   1.915       .  S
O120        C123   1.268       .  A
V121        V122   2.083       .  T
C123        C806   1.475       .  S
C124        C741   1.465       .  S
C125        C754   1.460       .  S
C126        C737   1.471       .  S
O127        V135   1.913       .  S
O127        C137   1.266       .  A
O128        V135   1.901       .  S
O128        C138   1.265       .  A
O129        V135   1.897       .  S
O129        C139   1.265       .  A
O130        V135   1.912       .  S
O130        C140   1.265       .  A
O131        V136   1.888       .  S
O131        C140   1.261       .  A
O132        V136   1.893       .  S
O132        C139   1.262       .  A
O133        V136   1.888       .  S
O133        C138   1.260       .  A
O134        V136   1.886       .  S
O134        C137   1.261       .  A
V135        V136   2.090       .  T
C137        C725   1.467       .  S
C138        C733   1.465       .  S
C139        C750   1.467       .  S
C140        C729   1.466       .  S
O141        V149   1.894       .  S
O141        C151   1.264       .  A
O142        V149   1.899       .  S
O142        C152   1.262       .  A
O143        V149   1.890       .  S
O143        C153   1.262       .  A
O144        V149   1.892       .  S
O144        C154   1.261       .  A
O145        V150   1.894       .  S
O145        C154   1.265       .  A
O146        V150   1.913       .  S
O146        C153   1.265       .  A
O147        V150   1.891       .  S
O147        C152   1.264       .  A
O148        V150   1.910       .  S
O148        C151   1.264       .  A
V149        V150   2.089       .  T
C151        C718   1.471       .  S
C152        C734   1.470       .  S
C153        C721   1.470       .  S
C154        C742   1.465       .  S
N155        C159   1.361       .  A
N155        C156   1.368       .  A
N155        C713   1.451       .  S
C156        C157   1.387       .  A
C156        C786   1.489       .  S
C157        C158   1.365       .  A
C157        H160   1.081       .  S
C158        C159   1.382       .  A
C158        H161   1.082       .  S
C159        C730   1.486       .  S
N162        C166   1.368       .  A
N162        C163   1.364       .  A
N162        C714   1.454       .  S
C163        C164   1.384       .  A
C163        C722   1.490       .  S
C164        C165   1.365       .  A
C164        H167   1.082       .  S
C165        C166   1.385       .  A
C165        H168   1.082       .  S
C166        C778   1.484       .  S
N169        C173   1.364       .  A
N169        C170   1.362   1_455  A
N169        C709   1.450       .  S
C170        C171   1.385       .  A
C170        C746   1.492       .  S
C171        C172   1.370   1_655  A
C171        H174   1.082       .  S
C172        C173   1.385       .  A
C172        H175   1.082       .  S
C173        C705   1.483       .  S
N176        C180   1.364       .  A
N176        C177   1.359   1_455  A
N176        C710   1.448       .  S
C177        C178   1.384       .  A
C177        C726   1.487       .  S
C178        C179   1.368   1_655  A
C178        H181   1.082       .  S
C179        C180   1.385       .  A
C179        H182   1.082       .  S
C180        C702   1.483       .  S
N183        C187   1.364       .  A
N183        C184   1.367   1_554  A
N183        C697   1.451       .  S
C184        C185   1.385       .  A
C184        C693   1.488       .  S
C185        C186   1.364   1_556  A
C185        H188   1.082       .  S
C186        C187   1.384       .  A
C186        H189   1.081       .  S
C187        C689   1.491       .  S
N190        C194   1.365       .  A
N190        C191   1.368   1_554  A
N190        C698   1.450       .  S
C191        C192   1.385   1_556  A
C191        C686   1.490       .  S
C192        C193   1.367       .  A
C192        H195   1.082   1_554  S
C193        C194   1.384       .  A
C193        H196   1.082       .  S
C194        C681   1.495       .  S
O197        V205   1.908       .  S
O197        C207   1.265       .  A
O198        V205   1.887       .  S
O198        C208   1.263       .  A
O199        V205   1.897       .  S
O199        C209   1.267       .  A
O200        V205   1.913       .  S
O200        C210   1.265       .  A
O201        V206   1.896       .  S
O201        C210   1.264       .  A
O202        V206   1.890       .  S
O202        C209   1.260       .  A
O203        V206   1.900       .  S
O203        C208   1.263       .  A
O204        V206   1.900       .  S
O204        C207   1.265       .  A
V205        V206   2.085       .  T
C207        C669   1.473       .  S
C208        C678   1.467       .  S
C209        C673   1.466       .  S
C210        C665   1.474       .  S
O211        V219   1.915       .  S
O211        C221   1.266       .  A
O212        V219   1.904       .  S
O212        C222   1.265       .  A
O213        V219   1.911       .  S
O213        C223   1.266       .  A
O214        V219   1.895       .  S
O214        C224   1.264       .  A
O215        V220   1.892       .  S
O215        C224   1.262       .  A
O216        V220   1.893       .  S
O216        C223   1.263       .  A
O217        V220   1.882       .  S
O217        C222   1.261       .  A
O218        V220   1.893       .  S
O218        C221   1.263       .  A
V219        V220   2.084       .  T
C221        C658   1.473       .  S
C222        C661   1.465       .  S
C223        C701   1.471       .  S
C224        C677   1.464       .  S
O225        V233   1.912       .  S
O225        C235   1.265       .  A
O226        V233   1.901       .  S
O226        C236   1.265       .  A
O227        V233   1.912       .  S
O227        C237   1.266       .  A
O228        V233   1.894       .  S
O228        C238   1.264       .  A
O229        V234   1.887       .  S
O229        C238   1.261       .  A
O230        V234   1.890       .  S
O230        C237   1.262       .  A
O231        V234   1.885       .  S
O231        C236   1.261       .  A
O232        V234   1.893       .  S
O232        C235   1.263       .  A
V233        V234   2.085       .  T
C235        C690   1.470       .  S
C236        C662   1.464       .  S
C237        C706   1.471       .  S
C238        C653   1.459       .  S
O239        V247   1.904       .  S
O239        C249   1.263       .  A
O240        V247   1.881       .  S
O240        C250   1.262       .  A
O241        V247   1.905       .  S
O241        C251   1.267       .  A
O242        V247   1.918       .  S
O242        C252   1.267       .  A
O243        V248   1.893       .  S
O243        C252   1.263       .  A
O244        V248   1.883       .  S
O244        C251   1.259       .  A
O245        V248   1.900       .  S
O245        C250   1.263       .  A
O246        V248   1.899       .  S
O246        C249   1.265       .  A
V247        V248   2.085       .  T
C249        C650   1.469       .  S
C250        C654   1.464       .  S
C251        C674   1.464       .  S
C252        C682   1.476       .  S
N253        C257   1.365       .  A
N253        C254   1.368       .  A
N253        C645   1.453       .  S
C254        C255   1.385       .  A
C254        C670   1.488       .  S
C255        C256   1.365       .  A
C255        H258   1.082       .  S
C256        C257   1.384       .  A
C256        H259   1.082       .  S
C257        C738   1.492       .  S
N260        C264   1.366       .  A
N260        C261   1.367       .  A
N260        C646   1.455       .  S
C261        C262   1.384       .  A
C261        C649   1.483       .  S
C262        C263   1.362       .  A
C262        H265   1.082       .  S
C263        C264   1.384       .  A
C263        H266   1.082       .  S
C264        C717   1.491       .  S
O267        V275   1.905       .  S
O267        C277   1.264       .  A
O268        V275   1.887       .  S
O268        C278   1.263       .  A
O269        V275   1.914       .  S
O269        C279   1.266       .  A
O270        V275   1.900       .  S
O270        C280   1.267       .  A
O271        V276   1.883       .  S
O271        C280   1.258       .  A
O272        V276   1.891       .  S
O272        C279   1.262       .  A
O273        V276   1.903       .  S
O273        C278   1.264       .  A
O274        V276   1.903       .  S
O274        C277   1.265       .  A
V275        V276   2.086       .  T
C277        C694   1.472       .  S
C278        C637   1.468       .  S
C279        C633   1.470       .  S
C280        C641   1.462       .  S
O281        V289   1.913       .  S
O281        C291   1.266       .  A
O282        V289   1.894       .  S
O282        C292   1.265       .  A
O283        V289   1.893       .  S
O283        C293   1.263       .  A
O284        V289   1.912       .  S
O284        C294   1.265       .  A
O285        V290   1.896       .  S
O285        C294   1.264       .  A
O286        V290   1.895       .  S
O286        C293   1.262       .  A
O287        V290   1.888       .  S
O287        C292   1.259       .  A
O288        V290   1.890       .  S
O288        C291   1.262       .  A
V289        V290   2.090       .  T
C291        C621   1.471       .  S
C292        C629   1.463       .  S
C293        C638   1.465       .  S
C294        C625   1.472       .  S
O295        V303   1.911       .  S
O295        C305   1.265       .  A
O296        V303   1.890       .  S
O296        C306   1.264       .  A
O297        V303   1.913       .  S
O297        C307   1.265       .  A
O298        V303   1.898       .  S
O298        C308   1.267       .  A
O299        V304   1.884       .  S
O299        C308   1.258       .  A
O300        V304   1.890       .  S
O300        C307   1.262       .  A
O301        V304   1.900       .  S
O301        C306   1.263       .  A
O302        V304   1.900       .  S
O302        C305   1.264       .  A
V303        V304   2.086       .  T
C305        C685   1.474       .  S
C306        C617   1.468       .  S
C307        C613   1.469       .  S
C308        C642   1.462       .  S
O309        V317   1.912       .  S
O309        C319   1.265       .  A
O310        V317   1.896       .  S
O310        C320   1.265       .  A
O311        V317   1.897       .  S
O311        C321   1.265       .  A
O312        V317   1.914       .  S
O312        C322   1.266       .  A
O313        V318   1.894       .  S
O313        C322   1.263       .  A
O314        V318   1.892       .  S
O314        C321   1.262       .  A
O315        V318   1.886       .  S
O315        C320   1.259       .  A
O316        V318   1.892       .  S
O316        C319   1.263       .  A
V317        V318   2.088       .  T
C319        C605   1.470       .  S
C320        C630   1.461       .  S
C321        C618   1.466       .  S
C322        C610   1.473       .  S
N323        C327   1.369       .  A
N323        C324   1.366       .  A
N323        C601   1.452       .  S
C324        C325   1.384       .  A
C324        C666   1.495       .  S
C325        C326   1.365       .  A
C325        H328   1.082       .  S
C326        C327   1.385       .  A
C326        H329   1.082       .  S
C327        C626   1.492       .  S
N330        C334   1.365       .  A
N330        C331   1.367       .  A
N330        C602   1.451       .  S
C331        C332   1.384       .  A
C331        C609   1.490       .  S
C332        C333   1.367       .  A
C332        H335   1.082       .  S
C333        C334   1.386       .  A
C333        H336   1.081       .  S
C334        C657   1.495       .  S
O337        V345   1.902       .  S
O337        C347   1.262       .  A
O338        V345   1.887       .  S
O338        C348   1.260       .  A
O339        V345   1.908       .  S
O339        C349   1.267       .  A
O340        V345   1.922       .  S
O340        C350   1.269       .  A
O341        V346   1.890       .  S
O341        C350   1.261       .  A
O342        V346   1.877       .  S
O342        C349   1.257       .  A
O343        V346   1.894       .  S
O343        C348   1.264       .  A
O344        V346   1.901       .  S
O344        C347   1.266       .  A
V345        V346   2.090       .  T
C347        C833   1.470       .  S
C348        C597   1.460       .  S
C349        C593   1.461       .  S
C350        C589   1.478       .  S
O351        V359   1.905       .  S
O351        C361   1.263       .  A
O352        V359   1.889       .  S
O352        C362   1.263       .  A
O353        V359   1.890       .  S
O353        C363   1.266       .  A
O354        V359   1.912       .  S
O354        C364   1.265       .  A
O355        V360   1.899       .  S
O355        C364   1.264       .  A
O356        V360   1.895       .  S
O356        C363   1.260       .  A
O357        V360   1.896       .  S
O357        C362   1.262       .  A
O358        V360   1.903       .  S
O358        C361   1.266       .  A
V359        V360   2.088       .  T
C361        C826   1.473       .  S
C362        C585   1.466       .  S
C363        C594   1.468       .  S
C364        C581   1.475       .  S
O365        V373   1.924       .  S
O365        C375   1.271       .  A
O366        V373   1.910       .  S
O366        C376   1.267       .  A
O367        V373   1.911       .  S
O367        C377   1.264       .  A
O368        V373   1.898       .  S
O368        C378   1.262       .  A
O369        V374   1.884       .  S
O369        C378   1.263       .  A
O370        V374   1.897       .  S
O370        C377   1.265       .  A
O371        V374   1.885       .  S
O371        C376   1.260       .  A
O372        V374   1.891       .  S
O372        C375   1.261       .  A
V373        V374   2.085       .  T
C375        C573   1.480       .  S
C376        C577   1.467       .  S
C377        C762   1.473       .  S
C378        C598   1.464       .  S
O379        V387   1.912       .  S
O379        C389   1.266       .  A
O380        V387   1.892       .  S
O380        C390   1.265       .  A
O381        V387   1.911       .  S
O381        C391   1.264       .  A
O382        V387   1.896       .  S
O382        C392   1.265       .  A
O383        V388   1.889       .  S
O383        C392   1.261       .  A
O384        V388   1.899       .  S
O384        C391   1.265       .  A
O385        V388   1.901       .  S
O385        C390   1.263       .  A
O386        V388   1.898       .  S
O386        C389   1.264       .  A
V387        V388   2.086       .  T
C389        C569   1.474       .  S
C390        C578   1.473       .  S
C391        C758   1.475       .  S
C392        C586   1.463       .  S
N393        C397   1.368       .  A
N393        C394   1.366       .  A
N393        C565   1.455       .  S
C394        C395   1.384       .  A
C394        C561   1.494       .  S
C395        C396   1.366       .  A
C395        H398   1.082       .  S
C396        C397   1.385       .  A
C396        H399   1.082       .  S
C397        C582   1.490       .  S
N400        C404   1.368       .  A
N400        C401   1.364       .  A
N400        C566   1.452       .  S
C401        C402   1.384       .  A
C401        C557   1.491       .  S
C402        C403   1.365       .  A
C402        H405   1.082       .  S
C403        C404   1.386       .  A
C403        H406   1.082       .  S
C404        C570   1.488       .  S
N407        C411   1.364       .  A
N407        C408   1.368   1_565  A
N407        C553   1.452       .  S
C408        C409   1.385   1_545  A
C408        C550   1.488       .  S
C409        C410   1.366       .  A
C409        H412   1.082   1_565  S
C410        C411   1.384       .  A
C410        H413   1.082       .  S
C411        C634   1.491       .  S
N414        C418   1.367   1_565  A
N414        C415   1.365       .  A
N414        C554   1.455       .  S
C415        C416   1.383       .  A
C415        C622   1.489       .  S
C416        C417   1.365       .  A
C416        H419   1.082       .  S
C417        C418   1.385   1_565  A
C417        H420   1.082   1_565  S
C418        C545   1.485       .  S
N421        C425   1.365       .  A
N421        C422   1.368   1_455  A
N421        C541   1.451       .  S
C422        C423   1.385   1_655  A
C422        C590   1.492       .  S
C423        C424   1.372       .  A
C423        H426   1.082       .  S
C424        C425   1.385       .  A
C424        H427   1.082       .  S
C425        C537   1.497       .  S
N428        C432   1.367   1_455  A
N428        C429   1.363       .  A
N428        C542   1.448       .  S
C429        C430   1.385       .  A
C429        C533   1.497       .  S
C430        C431   1.372       .  A
C430        H433   1.081       .  S
C431        C432   1.384   1_455  A
C431        H434   1.082   1_455  S
C432        C574   1.492       .  S
O435        V443   1.910       .  S
O435        C445   1.265       .  A
O436        V443   1.894       .  S
O436        C446   1.263       .  A
O437        V443   1.911       .  S
O437        C447   1.265       .  A
O438        V443   1.890       .  S
O438        C448   1.263       .  A
O439        V444   1.897       .  S
O439        C448   1.263       .  A
O440        V444   1.897       .  S
O440        C447   1.264       .  A
O441        V444   1.889       .  S
O441        C446   1.261       .  A
O442        V444   1.896       .  S
O442        C445   1.264       .  A
V443        V444   2.087       .  T
C445        C562   1.474       .  S
C446        C525   1.461       .  S
C447        C521   1.473       .  S
C448        C529   1.466       .  S
O449        V457   1.910       .  S
O449        C459   1.266       .  A
O450        V457   1.890       .  S
O450        C460   1.261       .  A
O451        V457   1.910       .  S
O451        C461   1.267       .  A
O452        V457   1.921       .  S
O452        C462   1.269       .  A
O453        V458   1.890       .  S
O453        C462   1.262       .  A
O454        V458   1.874       .  S
O454        C461   1.260       .  A
O455        V458   1.893       .  S
O455        C460   1.265       .  A
O456        V458   1.899       .  S
O456        C459   1.264       .  A
V457        V458   2.084       .  T
C459        C549   1.474       .  S
C460        C517   1.462       .  S
C461        C513   1.468       .  S
C462        C538   1.477       .  S
O463        V471   1.908       .  S
O463        C473   1.265       .  A
O464        V471   1.891       .  S
O464        C474   1.261       .  A
O465        V471   1.909       .  S
O465        C475   1.267       .  A
O466        V471   1.920       .  S
O466        C476   1.268       .  A
O467        V472   1.891       .  S
O467        C476   1.262       .  A
O468        V472   1.876       .  S
O468        C475   1.260       .  A
O469        V472   1.893       .  S
O469        C474   1.265       .  A
O470        V472   1.895       .  S
O470        C473   1.263       .  A
V471        V472   2.081       .  T
C473        C510   1.470       .  S
C474        C518   1.462       .  S
C475        C526   1.467       .  S
C476        C534   1.476       .  S
O477        V485   1.910       .  S
O477        C487   1.264       .  A
O478        V485   1.895       .  S
O478        C488   1.264       .  A
O479        V485   1.909       .  S
O479        C489   1.265       .  A
O480        V485   1.892       .  S
O480        C490   1.264       .  A
O481        V486   1.896       .  S
O481        C490   1.263       .  A
O482        V486   1.896       .  S
O482        C489   1.263       .  A
O483        V486   1.889       .  S
O483        C488   1.261       .  A
O484        V486   1.894       .  S
O484        C487   1.264       .  A
V485        V486   2.086       .  T
C487        C558   1.471       .  S
C488        C514   1.461       .  S
C489        C546   1.471       .  S
C490        C530   1.465       .  S
N491        C495   1.363       .  A
N491        C492   1.368       .  A
N491        C505   1.451       .  S
C492        C493   1.386       .  A
C492        C522   1.489       .  S
C493        C494   1.366       .  A
C493        H496   1.082       .  S
C494        C495   1.383       .  A
C494        H497   1.082       .  S
C495        C614   1.489       .  S
N498        C502   1.366       .  A
N498        C499   1.365       .  A
N498        C506   1.454       .  S
C499        C500   1.385       .  A
C499        C606   1.491       .  S
C500        C501   1.364       .  A
C500        H503   1.082       .  S
C501        C502   1.383       .  A
C501        H504   1.082       .  S
C502        C509   1.482       .  S
C505        C506   1.352       .  D
C505        H507   1.086       .  S
C506        H508   1.086       .  S
C509        C510   1.352       .  D
C509        H511   1.086       .  S
C510        H512   1.086       .  S
C513        C514   1.345       .  D
C513        H515   1.086       .  S
C514        H516   1.087       .  S
C517        C518   1.338       .  D
C517        H519   1.087       .  S
C518        H520   1.087       .  S
C521        C522   1.356       .  D
C521        H523   1.085       .  S
C522        H524   1.087       .  S
C525        C526   1.344       .  D
C525        H527   1.087       .  S
C526        H528   1.086       .  S
C529        C530   1.341       .  D
C529        H531   1.087       .  S
C530        H532   1.087       .  S
C533        C534   1.354       .  D
C533        H535   1.086       .  S
C534        H536   1.085       .  S
C537        C538   1.355       .  D
C537        H539   1.086       .  S
C538        H540   1.085       .  S
C541        C542   1.349       .  D
C541        H543   1.086       .  S
C542        H544   1.086       .  S
C545        C546   1.353       .  D
C545        H547   1.087       .  S
C546        H548   1.086       .  S
C549        C550   1.356       .  D
C549        H551   1.086       .  S
C550        H552   1.086       .  S
C553        C554   1.352       .  D
C553        H555   1.086       .  S
C554        H556   1.086       .  S
C557        C558   1.353       .  D
C557        H559   1.086       .  S
C558        H560   1.086       .  S
C561        C562   1.356       .  D
C561        H563   1.086       .  S
C562        H564   1.085       .  S
C565        C566   1.354       .  D
C565        H567   1.085       .  S
C566        H568   1.086       .  S
C569        C570   1.356       .  D
C569        H571   1.085       .  S
C570        H572   1.087       .  S
C573        C574   1.358       .  D
C573        H575   1.086       .  S
C574        H576   1.087       .  S
C577        C578   1.340       .  D
C577        H579   1.087       .  S
C578        H580   1.086       .  S
C581        C582   1.356       .  D
C581        H583   1.085       .  S
C582        H584   1.087       .  S
C585        C586   1.340       .  D
C585        H587   1.087       .  S
C586        H588   1.087       .  S
C589        C590   1.356       .  D
C589        H591   1.085       .  S
C590        H592   1.087       .  S
C593        C594   1.336       .  D
C593        H595   1.087       .  S
C594        H596   1.086       .  S
C597        C598   1.339       .  D
C597        H599   1.087       .  S
C598        H600   1.086       .  S
C601        C602   1.350       .  D
C601        H603   1.087       .  S
C602        H604   1.087       .  S
C605        C606   1.354       .  D
C605        H607   1.086       .  S
C606        H608   1.087       .  S
C609        C610   1.355       .  D
C609        H611   1.086       .  S
C610        H612   1.086       .  S
C613        C614   1.352       .  D
C613        H615   1.086       .  S
C614        H616   1.086       .  S
C617        C618   1.341       .  D
C617        H619   1.087       .  S
C618        H620   1.087       .  S
C621        C622   1.354       .  D
C621        H623   1.087       .  S
C622        H624   1.086       .  S
C625        C626   1.356       .  D
C625        H627   1.085       .  S
C626        H628   1.086       .  S
C629        C630   1.337       .  D
C629        H631   1.087       .  S
C630        H632   1.087       .  S
C633        C634   1.352       .  D
C633        H635   1.085       .  S
C634        H636   1.087       .  S
C637        C638   1.343       .  D
C637        H639   1.087       .  S
C638        H640   1.087       .  S
C641        C642   1.335       .  D
C641        H643   1.087       .  S
C642        H644   1.087       .  S
C645        C646   1.355       .  D
C645        H647   1.085       .  S
C646        H648   1.086       .  S
C649        C650   1.353       .  D
C649        H651   1.086       .  S
C650        H652   1.086       .  S
C653        C654   1.340       .  D
C653        H655   1.087       .  S
C654        H656   1.087       .  S
C657        C658   1.354       .  D
C657        H659   1.086       .  S
C658        H660   1.084       .  S
C661        C662   1.344       .  D
C661        H663   1.087       .  S
C662        H664   1.087       .  S
C665        C666   1.355       .  D
C665        H667   1.085       .  S
C666        H668   1.086       .  S
C669        C670   1.355       .  D
C669        H671   1.085       .  S
C670        H672   1.087       .  S
C673        C674   1.336       .  D
C673        H675   1.086       .  S
C674        H676   1.086       .  S
C677        C678   1.341       .  D
C677        H679   1.087       .  S
C678        H680   1.087       .  S
C681        C682   1.355       .  D
C681        H683   1.085       .  S
C682        H684   1.085       .  S
C685        C686   1.355       .  D
C685        H687   1.085       .  S
C686        H688   1.086       .  S
C689        C690   1.354       .  D
C689        H691   1.087       .  S
C690        H692   1.086       .  S
C693        C694   1.354       .  D
C693        H695   1.086       .  S
C694        H696   1.085       .  S
C697        C698   1.350       .  D
C697        H699   1.095       .  S
C698        H700   1.096       .  S
C701        C702   1.353       .  D
C701        H703   1.086       .  S
C702        H704   1.087       .  S
C705        C706   1.351       .  D
C705        H707   1.087       .  S
C706        H708   1.085       .  S
C709        C710   1.349       .  D
C709        H711   1.086       .  S
C710        H712   1.086       .  S
C713        C714   1.349       .  D
C713        H715   1.086       .  S
C714        H716   1.087       .  S
C717        C718   1.355       .  D
C717        H719   1.086       .  S
C718        H720   1.086       .  S
C721        C722   1.352       .  D
C721        H723   1.086       .  S
C722        H724   1.086       .  S
C725        C726   1.348       .  D
C725        H727   1.086       .  S
C726        H728   1.086       .  S
C729        C730   1.349       .  D
C729        H731   1.086       .  S
C730        H732   1.087       .  S
C733        C734   1.340       .  D
C733        H735   1.087       .  S
C734        H736   1.087       .  S
C737        C738   1.355       .  D
C737        H739   1.085       .  S
C738        H740   1.086       .  S
C741        C742   1.339       .  D
C741        H743   1.087       .  S
C742        H744   1.087       .  S
C745        C746   1.353       .  D
C745        H747   1.086       .  S
C746        H748   1.086       .  S
C749        C750   1.341       .  D
C749        H751   1.087       .  S
C750        H752   1.087       .  S
C753        C754   1.342       .  D
C753        H755   1.087       .  S
C754        H756   1.087       .  S
C757        C758   1.358       .  D
C757        H759   1.086       .  S
C758        H760   1.085       .  S
C761        C762   1.357       .  D
C761        H763   1.086       .  S
C762        H764   1.085       .  S
C765        C766   1.353       .  D
C765        H767   1.086       .  S
C766        H768   1.086       .  S
C769        C770   1.358       .  D
C769        H771   1.085       .  S
C770        H772   1.086       .  S
C773        C774   1.339       .  D
C773        H775   1.087       .  S
C774        H776   1.087       .  S
C777        C778   1.354       .  D
C777        H779   1.086       .  S
C778        H780   1.087       .  S
C781        C782   1.338       .  D
C781        H783   1.087       .  S
C782        H784   1.087       .  S
C785        C786   1.356       .  D
C785        H787   1.084       .  S
C786        H788   1.087       .  S
C789        C790   1.358       .  D
C789        H791   1.085       .  S
C790        H792   1.086       .  S
C793        C794   1.335       .  D
C793        H795   1.086       .  S
C794        H796   1.088       .  S
C797        C798   1.340       .  D
C797        H799   1.086       .  S
C798        H800   1.087       .  S
C801        C802   1.355       .  D
C801        H803   1.086       .  S
C802        H804   1.086       .  S
C805        C806   1.354       .  D
C805        H807   1.086       .  S
C806        H808   1.086       .  S
C809        C810   1.351       .  D
C809        H811   1.087       .  S
C810        H812   1.086       .  S
C813        C814   1.355       .  D
C813        H815   1.087       .  S
C814        H816   1.085       .  S
C817        C818   1.351       .  D
C817        H819   1.086       .  S
C818        H820   1.086       .  S
C821        C822   1.354       .  D
C821        H823   1.086       .  S
C822        H824   1.087       .  S
C825        C826   1.360       .  D
C825        H827   1.086       .  S
C826        H828   1.083       .  S
C829        C830   1.354       .  D
C829        H831   1.084       .  S
C830        H832   1.086       .  S
C833        C834   1.358       .  D
C833        H835   1.084       .  S
C834        H836   1.086       .  S
C837        C838   1.351       .  D
C837        H839   1.086   1_556  S
C838        H840   1.086   1_556  S
