geometry optimzed in LAMMPS
_audit_creation_date              2020-12-01 
_audit_creation_method            'lammps2cif' 
_symmetry_space_group_name_H-M    'P1' 
_symmetry_Int_Tables_number       1 
_symmetry_cell_setting            triclinic 
loop_ 
_symmetry_equiv_pos_as_xyz 
  x,y,z 
_cell_length_a                    35.95600022 
_cell_length_b                    36.001282347519634 
_cell_length_c                    25.917988607967605 
_cell_angle_alpha                 90.44453376787558 
_cell_angle_beta                  89.43370303635692 
_cell_angle_gamma                 120.51314287958124 
loop_ 
_atom_site_label 
_atom_site_type_symbol 
_atom_site_fract_x 
_atom_site_fract_y 
_atom_site_fract_z 
_atom_site_charge 
C1          C  0.33416852  0.16672920  0.08392902     0.30400
C2          C  0.33464207  0.16504943  0.97770258     0.30400
C3          C  0.35514463  0.14297868  0.05832833    -0.05800
C4          C  0.28908815  0.14529112  0.05785911    -0.06600
C5          C  0.35709390  0.21093979  0.05685537    -0.06500
C6          C  0.35510125  0.14211539  0.00458311    -0.05800
C7          C  0.28966965  0.14290925  0.00386426    -0.06600
C8          C  0.35724966  0.20961313  0.00311219    -0.06500
C9          C  0.37330487  0.11829082  0.98929360    -0.31900
N10         N  0.38524848  0.10549358  0.03179400     0.14600
C11         C  0.37405234  0.11981597  0.07445273    -0.31900
H12         H  0.37943635  0.11404419  0.11384772     0.16600
C13         C  0.24735417  0.11958156  0.98819529    -0.30900
N14         N  0.22135505  0.11199934  0.02949631     0.13400
C15         C  0.24603629  0.12807053  0.07225917    -0.30800
C16         C  0.37770070  0.25128608  0.98567071    -0.31100
N17         N  0.39016722  0.27793763  0.02708096     0.13900
H18         H  0.38340502  0.26161378  0.94580346     0.16500
C19         C  0.37753062  0.25404340  0.07079821    -0.31100
H20         H  0.38253303  0.26717985  0.10947359     0.16500
H21         H  0.23329056  0.12743224  0.11040072     0.16500
H22         H  0.37734564  0.11029320  0.95008740     0.16600
H23         H  0.23548753  0.10835986  0.94970569     0.16500
C24         C  0.33551366  0.16422300  0.47762697     0.30400
C25         C  0.33474932  0.16724735  0.58373800     0.30400
C26         C  0.35590385  0.14150055  0.50555622    -0.05800
C27         C  0.35839901  0.20905534  0.50204578    -0.06600
C28         C  0.29062622  0.14266691  0.50349237    -0.06500
C29         C  0.35683796  0.14421556  0.55923606    -0.05800
C30         C  0.35719847  0.21128028  0.55569540    -0.06600
C31         C  0.28974187  0.14449743  0.55743593    -0.06500
C32         C  0.37810491  0.12369405  0.57662389    -0.31900
N33         N  0.38761684  0.10691797  0.53497540     0.14600
C34         C  0.37305738  0.11629971  0.49203662    -0.31900
H35         H  0.37520971  0.10522623  0.45383770     0.16600
C36         C  0.37381649  0.25450356  0.56768110    -0.30900
N37         N  0.38757637  0.27755354  0.52338547     0.13400
C38         C  0.37829732  0.25024222  0.48315680    -0.30800
C39         C  0.24640359  0.12391588  0.57180894    -0.31100
N40         N  0.22200225  0.10924333  0.52844795     0.13900
H41         H  0.23353605  0.11982790  0.61059844     0.16500
C42         C  0.24857139  0.11993500  0.48697129    -0.31100
H43         H  0.23776766  0.11114114  0.44758081     0.16500
H44         H  0.38400168  0.25966715  0.44297632     0.16500
H45         H  0.38573447  0.12090674  0.61617493     0.16600
H46         H  0.37495582  0.26842691  0.60516523     0.16500
C47         C  0.16370042  0.33456313  0.02270091     0.30400
C48         C  0.16591423  0.33400275  0.91648796     0.30400
C49         C  0.14235362  0.35645991  0.99547296    -0.05800
C50         C  0.20841825  0.35562974  0.99749956    -0.06600
C51         C  0.14019420  0.28970209  0.99688844    -0.07900
C52         C  0.14440514  0.35742713  0.94177244    -0.05800
C53         C  0.21003761  0.35465987  0.94378943    -0.06600
C54         C  0.14197516  0.28893243  0.94284490    -0.06500
C55         C  0.12486300  0.38002496  0.92558324    -0.31900
N56         N  0.11011264  0.39100060  0.96809788     0.14600
C57         C  0.11960662  0.37587399  0.01048311    -0.31900
H58         H  0.11091814  0.37946664  0.04953634     0.16600
C59         C  0.25314789  0.37227993  0.93031623    -0.30900
N60         N  0.27685013  0.38530035  0.97417597     0.13400
C61         C  0.24994653  0.37519460  0.01525824    -0.30800
C62         C  0.12205525  0.24565105  0.92869344    -0.31100
N63         N  0.10653268  0.22135559  0.97189893     0.13900
H64         H  0.11979700  0.23239647  0.89052584     0.16500
C65         C  0.11633193  0.24761193  0.01319901    -0.31100
H66         H  0.10565729  0.23614178  0.05201799     0.16500
H67         H  0.25995271  0.38099727  0.05519973     0.16500
H68         H  0.12130641  0.38751734  0.88623489     0.16600
H69         H  0.26638894  0.37566074  0.89181733     0.16500
C70         C  0.16437308  0.33317680  0.41626137     0.30400
C71         C  0.16370597  0.33532739  0.52239998     0.30400
C72         C  0.14235911  0.35599248  0.44121721    -0.05800
C73         C  0.14180169  0.28865727  0.44358341    -0.06600
C74         C  0.20906075  0.35548179  0.44260295    -0.06500
C75         C  0.14175358  0.35683232  0.49500604    -0.05800
C76         C  0.14015570  0.29020061  0.49748454    -0.06600
C77         C  0.20808145  0.35639546  0.49634565    -0.06500
C78         C  0.11762206  0.37512522  0.50903575    -0.31900
N79         N  0.10575897  0.38726646  0.46600060     0.14600
C80         C  0.11993351  0.37531390  0.42398433    -0.31900
H81         H  0.11419982  0.38007965  0.38432547     0.16600
C82         C  0.11786290  0.24840329  0.51491748    -0.30900
N83         N  0.10868381  0.22153911  0.47412937     0.13400
C84         C  0.12367351  0.24542787  0.43039374    -0.30800
C85         C  0.24984915  0.37692255  0.51341349    -0.31100
N86         N  0.27637417  0.38832957  0.47186194     0.13900
H87         H  0.26034445  0.38360416  0.55314235     0.16500
C88         C  0.25228113  0.37513020  0.42840087    -0.31100
H89         H  0.26555151  0.37922119  0.38984794     0.16500
H90         H  0.12178275  0.23227120  0.39219265     0.16500
H91         H  0.10746719  0.37814960  0.54745469     0.16600
H92         H  0.11007912  0.23800765  0.55462096     0.16500
O93         O  0.05412801  0.48119314  0.03468019    -0.88000
C94         C  0.06661852  0.06517181  0.92213257     0.88100
Mg95       Mg  0.00582005  0.41404378  0.03268138     1.58100
O96         O  0.01873637  0.07392169  0.03723574    -0.87700
O97         O  0.07414580  0.03669257  0.08592588    -0.75000
C98         C  0.32268306  0.40635806  0.97841888     0.93100
O99         O  0.03524733  0.46277828  0.91320119    -0.74900
O100        O  0.34153250  0.38538338  0.96794271    -0.82400
Mg101      Mg  0.09210418  0.00750201  0.96502630     1.58000
C102        C  0.40704895  0.08167896  0.02915231     0.93000
O103        O  0.15502134  0.05323555  0.00756213    -0.80600
H104        H  0.02175190  0.08474874  0.11323650    -0.06000
C105        C  0.43347783  0.50120874  0.92419217     0.88000
O106        O  0.46116773  0.42451334  0.08666079    -0.75100
O107        O  0.07386214  0.05563265  0.96503612    -0.87900
O108        O  0.44554742  0.10069665  0.01147681    -0.80700
C109        C  0.08294197  0.17544853  0.97581512     0.93100
C110        C  0.17547195  0.09155245  0.02545614     0.93000
Mg111      Mg  0.40622181  0.49123846  0.03762068     1.58000
O112        O  0.34270871  0.44447717  0.99689555    -0.80600
O113        O  0.46341228  0.03692247  0.08860834    -0.74900
O114        O  0.10248785  0.15656881  0.99222411    -0.80700
O115        O  0.11148069  0.45632117  0.96357750    -0.82400
O116        O  0.39552957  0.34318629  0.00745138    -0.80700
C117        C  0.50219460  0.06653069  0.08073500     0.87400
O118        O  0.42481963  0.44352974  0.03720615    -0.87900
O119        O  0.44387877  0.01749586  0.96757513    -0.88000
O120        O  0.42352896  0.46253491  0.91566611    -0.75000
Mg121      Mg  0.08590997  0.09345189  0.03473556     1.58000
O122        O  0.04241662  0.15553621  0.96840146    -0.82400
H123        H  0.06258437  0.47833962  0.11034342    -0.06100
O124        O  0.47962845  0.42607526  0.96424129    -0.87700
H125        H  0.47670677  0.41567350  0.88814519    -0.06000
H126        H  0.41362378  0.43444769  0.11305305    -0.06100
C127        C  0.99627838  0.43353405  0.92079993     0.87400
C128        C  0.06400184  0.99782554  0.07801149     0.88000
C129        C  0.43183925  0.43367105  0.08004213     0.88000
H130        H  0.43440743  0.02088083  0.89233748    -0.06100
O131        O  0.03710180  0.07407242  0.91541669    -0.75100
Mg132      Mg  0.41254030  0.40621330  0.96667564     1.58000
H133        H  0.08483803  0.06437058  0.88914089    -0.06100
C134        C  0.08937735  0.41583956  0.97119685     0.93000
O135        O  0.45488506  0.34316390  0.03155809    -0.82400
C136        C  0.41448648  0.32374895  0.02341564     0.93100
O137        O  0.15719425  0.11342954  0.03424636    -0.82400
Mg138      Mg  0.49184363  0.08459188  0.96846990     1.58200
O139        O  0.05077647  0.39733241  0.98826960    -0.80700
O140        O  0.38598227  0.04146563  0.03842495    -0.82400
O141        O  0.47936877  0.05390533  0.46767619    -0.88000
C142        C  0.06380116  0.06552859  0.57972893     0.88100
Mg143      Mg  0.41222767  0.00502116  0.46831209     1.58100
O144        O  0.07398315  0.02055730  0.46299149    -0.87700
O145        O  0.03543876  0.07543000  0.41663981    -0.75000
C146        C  0.40727932  0.32308165  0.51814306     0.93100
O147        O  0.46023152  0.03193321  0.58843143    -0.74900
O148        O  0.38539697  0.34090760  0.52881803    -0.82400
Mg149      Mg  0.00502474  0.09033402  0.53838907     1.58000
C150        C  0.08222968  0.40930361  0.46793804     0.93000
O151        O  0.05077818  0.15475052  0.49773180    -0.80600
H152        H  0.08525285  0.02522755  0.38699453    -0.06000
C153        C  0.50059267  0.43304598  0.57400041     0.88000
O154        O  0.42399891  0.46234913  0.41265349    -0.75100
O155        O  0.05414345  0.07325637  0.53717887    -0.87900
O156        O  0.10122095  0.44753448  0.48617873    -0.80700
C157        C  0.17586492  0.08502707  0.52458281     0.93100
C158        C  0.08895918  0.17577930  0.47909221     0.93000
Mg159      Mg  0.49166454  0.40806277  0.45989959     1.58000
O160        O  0.44536432  0.34393394  0.49946400    -0.80600
O161        O  0.03737628  0.46636330  0.41026369    -0.74900
O162        O  0.15642360  0.10421323  0.50872321    -0.80700
O163        O  0.45287822  0.10834481  0.54088566    -0.82400
O164        O  0.34201350  0.39390633  0.49021223    -0.80700
C165        C  0.06688978  0.50495342  0.41906760     0.87400
O166        O  0.44331623  0.42570969  0.46106952    -0.87900
O167        O  0.01741812  0.44435779  0.53087504    -0.88000
O168        O  0.46156383  0.42229590  0.58219054    -0.75000
Mg169      Mg  0.09249231  0.08724259  0.46722710     1.58000
O170        O  0.15624442  0.04439976  0.53155747    -0.82400
H171        H  0.47695634  0.06358450  0.39227085    -0.06100
O172        O  0.42394326  0.47770304  0.53569072    -0.87700
H173        H  0.41298749  0.47276664  0.61175292    -0.06000
H174        H  0.43510880  0.41599385  0.38497834    -0.06100
C175        C  0.43104206  0.99321248  0.57965399     0.87400
C176        C  0.99634425  0.06470833  0.42452818     0.88000
C177        C  0.43366792  0.43333690  0.41845718     0.88000
H178        H  0.02004760  0.43376823  0.60595974    -0.06100
O179        O  0.07335859  0.03641040  0.58546280    -0.75100
Mg180      Mg  0.40511231  0.41125651  0.53133311     1.58000
H181        H  0.06256481  0.08295552  0.61323577    -0.06100
C182        C  0.41247754  0.08623108  0.53253025     0.93000
O183        O  0.34139644  0.45335980  0.46826017    -0.82400
C184        C  0.32226671  0.41283392  0.47521994     0.93100
O185        O  0.11119242  0.15804633  0.46918829    -0.82400
Mg186      Mg  0.08475521  0.49278982  0.53080634     1.58200
O187        O  0.39433831  0.04805097  0.51451154    -0.80700
O188        O  0.04210575  0.38843488  0.45823977    -0.82400
C189        C  0.17598861  0.31088350  0.66391327    -0.27200
C190        C  0.16907162  0.34074381  0.69089391     0.02400
C191        C  0.16507082  0.37180263  0.66303661     0.30400
C192        C  0.16536227  0.37095932  0.60908313    -0.19000
C193        C  0.16666141  0.33768933  0.58154852    -0.28400
C194        C  0.17650316  0.31028870  0.60985624     0.44500
C195        C  0.16723901  0.33976931  0.74801952     0.05700
O196        O  0.16094982  0.40322209  0.68813242    -0.57000
H197        H  0.16621083  0.39758477  0.58935004     0.18600
O198        O  0.18801644  0.28371027  0.58528854    -0.63700
H199        H  0.18190093  0.28849138  0.68490440     0.17000
C200        C  0.13492281  0.30347478  0.77405465     0.29300
C201        C  0.13402180  0.30249698  0.82802395    -0.24600
C202        C  0.16654112  0.33631527  0.85738297    -0.23900
C203        C  0.19608457  0.37453436  0.83086060     0.40700
C204        C  0.19700448  0.37557262  0.77678442    -0.26300
O205        O  0.10272801  0.26969960  0.74702862    -0.58200
H206        H  0.10653382  0.27582049  0.84635684     0.16400
O207        O  0.22364919  0.41148413  0.85721956    -0.59600
H208        H  0.22095148  0.40455736  0.75724100     0.14800
H209        H  0.21999157  0.30038420  0.58349062     0.46700
H210        H  0.11122829  0.24746308  0.74557128     0.42100
H211        H  0.20787732  0.42730185  0.86134253     0.45500
H212        H  0.12946914  0.39057883  0.69367707     0.37000
C213        C  0.17279440  0.37600625  0.16253224    -0.27200
C214        C  0.16485583  0.33979270  0.19120475     0.02400
C215        C  0.16164007  0.30394758  0.16512586     0.30400
C216        C  0.16327037  0.30346954  0.11129038    -0.19000
C217        C  0.16553022  0.33727757  0.08186230    -0.28400
C218        C  0.17501018  0.37559834  0.10854035     0.44500
C219        C  0.16312752  0.34030828  0.24835000     0.05700
O220        O  0.15810638  0.26960392  0.19201333    -0.57000
H221        H  0.16479925  0.27725415  0.09316014     0.18600
O222        O  0.18798860  0.41332526  0.08257449    -0.63700
H223        H  0.17789286  0.40493847  0.18202196     0.17000
C224        C  0.19704385  0.37297375  0.27706512     0.29300
C225        C  0.19637906  0.37054353  0.33085044    -0.24600
C226        C  0.16349987  0.33458541  0.35732213    -0.23900
C227        C  0.12686985  0.30502071  0.32858010     0.40700
C228        C  0.12757039  0.30719097  0.27461570    -0.26300
O229        O  0.23124631  0.40730645  0.25303347    -0.58200
H230        H  0.22150129  0.39763909  0.35161033     0.16400
O231        O  0.08952776  0.27496028  0.35252810    -0.59600
H232        H  0.09995674  0.28319767  0.25313334     0.14800
H233        H  0.21981339  0.42729097  0.07950960     0.46700
H234        H  0.25225106  0.39778060  0.24570049     0.42100
H235        H  0.07331431  0.28995498  0.35990056     0.45500
H236        H  0.18818807  0.27758454  0.20002850     0.37000
C237        C  0.37738946  0.17626382  0.83784590    -0.27200
C238        C  0.34108874  0.16788436  0.80906787     0.02400
C239        C  0.30452706  0.16315498  0.83503947     0.30400
C240        C  0.30367428  0.16441655  0.88886675    -0.19000
C241        C  0.33764738  0.16724859  0.91848524    -0.28400
C242        C  0.37633917  0.17730375  0.89196490     0.44500
C243        C  0.34195892  0.16684474  0.75192718     0.05700
O244        O  0.26974024  0.15839613  0.80801331    -0.57000
H245        H  0.27707699  0.16543886  0.90671312     0.18600
O246        O  0.41367132  0.18927502  0.91833314    -0.63700
H247        H  0.40671992  0.18228927  0.81834762     0.17000
C248        C  0.37212299  0.20282318  0.72354200     0.29300
C249        C  0.36971881  0.20243986  0.66967796    -0.24600
C250        C  0.33643165  0.16711939  0.64280567    -0.23900
C251        C  0.30936636  0.12934734  0.67144951     0.40700
C252        C  0.31136136  0.12990437  0.72544474    -0.26300
O253        O  0.40319082  0.23913367  0.74817807    -0.58200
H254        H  0.39526139  0.22951958  0.64940056     0.16400
O255        O  0.28153063  0.09131708  0.64719792    -0.59600
H256        H  0.28915266  0.10118710  0.74678959     0.14800
H257        H  0.42867784  0.22114840  0.92065589     0.46700
H258        H  0.43008163  0.23797172  0.74488531     0.42100
H259        H  0.29775615  0.07595847  0.64308272     0.45500
H260        H  0.27640172  0.18816503  0.80068994     0.37000
C261        C  0.31156105  0.17604613  0.33586632    -0.27200
C262        C  0.34128195  0.16867747  0.30916224     0.02400
C263        C  0.37183864  0.16401111  0.33723576     0.30400
C264        C  0.37065847  0.16422593  0.39117441    -0.19000
C265        C  0.33750361  0.16611498  0.41845282    -0.28400
C266        C  0.31059323  0.17644459  0.38987305     0.44500
C267        C  0.34042463  0.16683212  0.25209266     0.05700
O268        O  0.40307352  0.15931113  0.31238998    -0.57000
H269        H  0.39693181  0.16449673  0.41111471     0.18600
O270        O  0.28423301  0.18845285  0.41410801    -0.63700
H271        H  0.28954806  0.18238668  0.31467029     0.17000
C272        C  0.30334302  0.13572288  0.22625590     0.29300
C273        C  0.30191918  0.13552057  0.17237607    -0.24600
C274        C  0.33665045  0.16698240  0.14291919    -0.23900
C275        C  0.37566347  0.19473410  0.16913628     0.40700
C276        C  0.37684086  0.19546841  0.22316229    -0.26300
O277        O  0.26855791  0.10472950  0.25340333    -0.58200
H278        H  0.27408436  0.10930710  0.15410657     0.16400
O279        O  0.41318613  0.22069464  0.14255848    -0.59600
H280        H  0.40638366  0.21836189  0.24250578     0.14800
H281        H  0.30120564  0.22037172  0.41559603     0.46700
H282        H  0.27418156  0.08063402  0.25733135     0.42100
H283        H  0.42685293  0.20298629  0.13723501     0.45500
H284        H  0.39011507  0.12779549  0.30732486     0.37000
C285        C  0.33416859  0.66672920  0.08392902     0.30400
C286        C  0.33464212  0.66504943  0.97770257     0.30400
C287        C  0.35514475  0.64297875  0.05832831    -0.05800
C288        C  0.28908822  0.64529114  0.05785911    -0.06600
C289        C  0.35709397  0.71093978  0.05685538    -0.06500
C290        C  0.35510134  0.64211543  0.00458310    -0.05800
C291        C  0.28966971  0.64290926  0.00386425    -0.06600
C292        C  0.35724973  0.70961312  0.00311218    -0.06500
C293        C  0.37330495  0.61829086  0.98929360    -0.31900
N294        N  0.38524861  0.60549366  0.03179400     0.14600
C295        C  0.37405245  0.61981604  0.07445273    -0.31900
H296        H  0.37943634  0.61404416  0.11384773     0.16600
C297        C  0.24735421  0.61958159  0.98819530    -0.30900
N298        N  0.22135512  0.61199950  0.02949632     0.13400
C299        C  0.24603638  0.62807070  0.07225917    -0.30800
C300        C  0.37770079  0.75128606  0.98567071    -0.31100
N301        N  0.39016731  0.77793761  0.02708096     0.13900
H302        H  0.38340510  0.76161376  0.94580346     0.16500
C303        C  0.37753070  0.75404339  0.07079821    -0.31100
H304        H  0.38253309  0.76717983  0.10947359     0.16500
H305        H  0.23329068  0.62743246  0.11040073     0.16500
H306        H  0.37734565  0.61029317  0.95008740     0.16600
H307        H  0.23548751  0.60835975  0.94970574     0.16500
C308        C  0.33551370  0.66422303  0.47762695     0.30400
C309        C  0.33474928  0.66724736  0.58373797     0.30400
C310        C  0.35590387  0.64150056  0.50555621    -0.05800
C311        C  0.35839912  0.70905539  0.50204575    -0.06600
C312        C  0.29062621  0.64266691  0.50349233    -0.06500
C313        C  0.35683791  0.64421555  0.55923605    -0.05800
C314        C  0.35719852  0.71128031  0.55569537    -0.06600
C315        C  0.28974183  0.64449744  0.55743587    -0.06500
C316        C  0.37810486  0.62369404  0.57662388    -0.31900
N317        N  0.38761679  0.60691791  0.53497541     0.14600
C318        C  0.37305739  0.61629971  0.49203662    -0.31900
H319        H  0.37520979  0.60522628  0.45383771     0.16600
C320        C  0.37381649  0.75450359  0.56768110    -0.30900
N321        N  0.38757631  0.77755359  0.52338547     0.13400
C322        C  0.37829741  0.75024230  0.48315680    -0.30800
C323        C  0.24640355  0.62391592  0.57180891    -0.31100
N324        N  0.22200220  0.60924343  0.52844794     0.13900
H325        H  0.23353601  0.61982797  0.61059840     0.16500
C326        C  0.24857135  0.61993505  0.48697128    -0.31100
H327        H  0.23776757  0.61114125  0.44758081     0.16500
H328        H  0.38400183  0.75966726  0.44297633     0.16500
H329        H  0.38573450  0.62090682  0.61617491     0.16600
H330        H  0.37495578  0.76842690  0.60516524     0.16500
C331        C  0.16370039  0.83456309  0.02270091     0.30400
C332        C  0.16591420  0.83400274  0.91648796     0.30400
C333        C  0.14235356  0.85645986  0.99547296    -0.05800
C334        C  0.20841824  0.85562970  0.99749956    -0.06600
C335        C  0.14019412  0.78970206  0.99688844    -0.07900
C336        C  0.14440510  0.85742710  0.94177243    -0.05800
C337        C  0.21003758  0.85465986  0.94378943    -0.06600
C338        C  0.14197514  0.78893240  0.94284490    -0.06500
C339        C  0.12486307  0.88002506  0.92558324    -0.31900
N340        N  0.11011263  0.89100060  0.96809790     0.14600
C341        C  0.11960659  0.87587396  0.01048313    -0.31900
H342        H  0.11091813  0.87946668  0.04953635     0.16600
C343        C  0.25314784  0.87227992  0.93031620    -0.30900
N344        N  0.27685014  0.88530046  0.97417590     0.13400
C345        C  0.24994656  0.87519462  0.01525821    -0.30800
C346        C  0.12205528  0.74565102  0.92869345    -0.31100
N347        N  0.10653261  0.72135556  0.97189893     0.13900
H348        H  0.11979713  0.73239646  0.89052586     0.16500
C349        C  0.11633177  0.74761190  0.01319900    -0.31100
H350        H  0.10565718  0.73614176  0.05201800     0.16500
H351        H  0.25995282  0.88099732  0.05519967     0.16500
H352        H  0.12130657  0.88751759  0.88623493     0.16600
H353        H  0.26638887  0.87566065  0.89181730     0.16500
C354        C  0.16437308  0.83317680  0.41626137     0.30400
C355        C  0.16370601  0.83532739  0.52239998     0.30400
C356        C  0.14235911  0.85599243  0.44121722    -0.05800
C357        C  0.14180178  0.78865726  0.44358341    -0.06600
C358        C  0.20906077  0.85548190  0.44260293    -0.06500
C359        C  0.14175361  0.85683230  0.49500604    -0.05800
C360        C  0.14015580  0.79020060  0.49748454    -0.06600
C361        C  0.20808149  0.85639552  0.49634565    -0.06500
C362        C  0.11762213  0.87512524  0.50903574    -0.31900
N363        N  0.10575910  0.88726654  0.46600060     0.14600
C364        C  0.11993358  0.87531392  0.42398433    -0.31900
H365        H  0.11419985  0.88007962  0.38432546     0.16600
C366        C  0.11786296  0.74840327  0.51491748    -0.30900
N367        N  0.10868385  0.72153909  0.47412938     0.13400
C368        C  0.12367359  0.74542785  0.43039375    -0.30800
C369        C  0.24984919  0.87692262  0.51341350    -0.31100
N370        N  0.27637422  0.88832970  0.47186194     0.13900
H371        H  0.26034449  0.88360416  0.55314237     0.16500
C372        C  0.25228116  0.87513031  0.42840087    -0.31100
H373        H  0.26555152  0.87922116  0.38984794     0.16500
H374        H  0.12178277  0.73227117  0.39219265     0.16500
H375        H  0.10746720  0.87814955  0.54745467     0.16600
H376        H  0.11007909  0.73800763  0.55462096     0.16500
O377        O  0.05412794  0.98119324  0.03468014    -0.88000
C378        C  0.06661856  0.56517199  0.92213259     0.88100
Mg379      Mg  0.00582006  0.91404385  0.03268137     1.58100
O380        O  0.01873634  0.57392165  0.03723575    -0.87700
O381        O  0.07414578  0.53669251  0.08592581    -0.75000
C382        C  0.32268307  0.90635809  0.97841876     0.93100
O383        O  0.03524740  0.96277832  0.91320116    -0.74900
O384        O  0.34153244  0.88538334  0.96794261    -0.82400
Mg385      Mg  0.09210417  0.50750201  0.96502630     1.58000
C386        C  0.40704900  0.58167898  0.02915231     0.93000
O387        O  0.15502145  0.55323556  0.00756215    -0.80600
H388        H  0.02175185  0.58474886  0.11323645    -0.06000
C389        C  0.43347782  0.00120884  0.92419218     0.88000
O390        O  0.46116789  0.92451351  0.08666083    -0.75100
O391        O  0.07386203  0.55563263  0.96503613    -0.87900
O392        O  0.44554747  0.60069661  0.01147680    -0.80700
C393        C  0.08294198  0.67544850  0.97581512     0.93100
C394        C  0.17547200  0.59155248  0.02545616     0.93000
Mg395      Mg  0.40622184  0.99123846  0.03762069     1.58000
O396        O  0.34270877  0.94447718  0.99689551    -0.80600
O397        O  0.46341226  0.53692242  0.08860834    -0.74900
O398        O  0.10248791  0.65656882  0.99222410    -0.80700
O399        O  0.11148071  0.95632116  0.96357752    -0.82400
O400        O  0.39552964  0.84318626  0.00745136    -0.80700
C401        C  0.50219456  0.56653069  0.08073499     0.87400
O402        O  0.42481967  0.94352972  0.03720615    -0.87900
O403        O  0.44387881  0.51749578  0.96757512    -0.88000
O404        O  0.42352910  0.96253504  0.91566609    -0.75000
Mg405      Mg  0.08590993  0.59345186  0.03473556     1.58000
O406        O  0.04241663  0.65553613  0.96840148    -0.82400
H407        H  0.06258451  0.97833969  0.11034332    -0.06100
O408        O  0.47962852  0.92607544  0.96424131    -0.87700
H409        H  0.47670674  0.91567375  0.88814518    -0.06000
H410        H  0.41362380  0.93444766  0.11305305    -0.06100
C411        C  0.99627841  0.93353420  0.92079993     0.87400
C412        C  0.06400181  0.49782547  0.07801153     0.88000
C413        C  0.43183932  0.93367107  0.08004214     0.88000
H414        H  0.43440752  0.52088074  0.89233742    -0.06100
O415        O  0.03710188  0.57407265  0.91541667    -0.75100
Mg416      Mg  0.41254035  0.90621333  0.96667562     1.58000
H417        H  0.08483820  0.56437097  0.88914094    -0.06100
C418        C  0.08937736  0.91583955  0.97119687     0.93000
O419        O  0.45488513  0.84316389  0.03155810    -0.82400
C420        C  0.41448655  0.82374892  0.02341564     0.93100
O421        O  0.15719420  0.61342948  0.03424636    -0.82400
Mg422      Mg  0.49184364  0.58459182  0.96846990     1.58200
O423        O  0.05077648  0.89733242  0.98826963    -0.80700
O424        O  0.38598227  0.54146565  0.03842494    -0.82400
O425        O  0.47936878  0.55390528  0.46767616    -0.88000
C426        C  0.06380117  0.56552860  0.57972893     0.88100
Mg427      Mg  0.41222761  0.50502111  0.46831206     1.58100
O428        O  0.07398309  0.52055736  0.46299148    -0.87700
O429        O  0.03543878  0.57542996  0.41663978    -0.75000
C430        C  0.40727934  0.82308172  0.51814307     0.93100
O431        O  0.46023146  0.53193321  0.58843143    -0.74900
O432        O  0.38539706  0.84090774  0.52881809    -0.82400
Mg433      Mg  0.00502472  0.59033400  0.53838906     1.58000
C434        C  0.08222974  0.90930361  0.46793803     0.93000
O435        O  0.05077810  0.65475053  0.49773179    -0.80600
H436        H  0.08525303  0.52522753  0.38699458    -0.06000
C437        C  0.50059267  0.93304599  0.57400040     0.88000
O438        O  0.42399897  0.96234927  0.41265351    -0.75100
O439        O  0.05414346  0.57325637  0.53717887    -0.87900
O440        O  0.10122096  0.94753447  0.48617875    -0.80700
C441        C  0.17586487  0.58502718  0.52458280     0.93100
C442        C  0.08895911  0.67577927  0.47909221     0.93000
Mg443      Mg  0.49166458  0.90806278  0.45989960     1.58000
O444        O  0.44536432  0.84393395  0.49946395    -0.80600
O445        O  0.03737630  0.96636325  0.41026366    -0.74900
O446        O  0.15642354  0.60421335  0.50872326    -0.80700
O447        O  0.45287820  0.60834479  0.54088566    -0.82400
O448        O  0.34201352  0.89390633  0.49021222    -0.80700
C449        C  0.06688975  0.00495338  0.41906759     0.87400
O450        O  0.44331619  0.92570969  0.46106949    -0.87900
O451        O  0.01741816  0.94435786  0.53087505    -0.88000
O452        O  0.46156383  0.92229590  0.58219049    -0.75000
Mg453      Mg  0.09249225  0.58724261  0.46722710     1.58000
O454        O  0.15624437  0.54439986  0.53155742    -0.82400
H455        H  0.47695636  0.56358441  0.39227081    -0.06100
O456        O  0.42394331  0.97770305  0.53569071    -0.87700
H457        H  0.41298739  0.97276672  0.61175289    -0.06000
H458        H  0.43510874  0.91599400  0.38497825    -0.06100
C459        C  0.43104206  0.49321245  0.57965401     0.87400
C460        C  0.99634427  0.56470830  0.42452816     0.88000
C461        C  0.43366788  0.93333698  0.41845716     0.88000
H462        H  0.02004752  0.93376811  0.60595975    -0.06100
O463        O  0.07335846  0.53641031  0.58546285    -0.75100
Mg464      Mg  0.40511235  0.91125655  0.53133311     1.58000
H465        H  0.06256488  0.58295560  0.61323573    -0.06100
C466        C  0.41247751  0.58623104  0.53253027     0.93000
O467        O  0.34139659  0.95335985  0.46826017    -0.82400
C468        C  0.32226678  0.91283397  0.47521994     0.93100
O469        O  0.11119229  0.65804624  0.46918829    -0.82400
Mg470      Mg  0.08475528  0.99278982  0.53080638     1.58200
O471        O  0.39433829  0.54805094  0.51451154    -0.80700
O472        O  0.04210581  0.88843484  0.45823979    -0.82400
C473        C  0.17598878  0.81088361  0.66391330    -0.27200
C474        C  0.16907164  0.84074383  0.69089393     0.02400
C475        C  0.16507070  0.87180255  0.66303662     0.30400
C476        C  0.16536214  0.87095925  0.60908314    -0.19000
C477        C  0.16666144  0.83768935  0.58154853    -0.28400
C478        C  0.17650321  0.81028876  0.60985627     0.44500
C479        C  0.16723899  0.83976933  0.74801953     0.05700
O480        O  0.16094985  0.90322211  0.68813243    -0.57000
H481        H  0.16621071  0.89758471  0.58935008     0.18600
O482        O  0.18801628  0.78371017  0.58528854    -0.63700
H483        H  0.18190117  0.78849154  0.68490444     0.17000
C484        C  0.13492277  0.80347484  0.77405465     0.29300
C485        C  0.13402179  0.80249704  0.82802395    -0.24600
C486        C  0.16654116  0.83631531  0.85738298    -0.23900
C487        C  0.19608466  0.87453437  0.83086060     0.40700
C488        C  0.19700454  0.87557261  0.77678442    -0.26300
O489        O  0.10272790  0.76969966  0.74702863    -0.58200
H490        H  0.10653382  0.77582057  0.84635686     0.16400
O491        O  0.22364929  0.91148421  0.85721951    -0.59600
H492        H  0.22095157  0.90455730  0.75724097     0.14800
H493        H  0.21999077  0.80038363  0.58349045     0.46700
H494        H  0.11122807  0.74746333  0.74557118     0.42100
H495        H  0.20787746  0.92730180  0.86134261     0.45500
H496        H  0.12946922  0.89057896  0.69367719     0.37000
C497        C  0.17279427  0.87600617  0.16253223    -0.27200
C498        C  0.16485586  0.83979268  0.19120475     0.02400
C499        C  0.16164017  0.80394756  0.16512589     0.30400
C500        C  0.16327045  0.80346953  0.11129038    -0.19000
C501        C  0.16553022  0.83727753  0.08186230    -0.28400
C502        C  0.17501005  0.87559825  0.10854033     0.44500
C503        C  0.16312754  0.84030829  0.24835001     0.05700
O504        O  0.15810648  0.76960392  0.19201334    -0.57000
H505        H  0.16479931  0.77725413  0.09316011     0.18600
O506        O  0.18798865  0.91332523  0.08257449    -0.63700
H507        H  0.17789269  0.90493839  0.18202194     0.17000
C508        C  0.19704393  0.87297373  0.27706512     0.29300
C509        C  0.19637908  0.87054348  0.33085045    -0.24600
C510        C  0.16349980  0.83458541  0.35732214    -0.23900
C511        C  0.12686972  0.80502075  0.32858012     0.40700
C512        C  0.12757035  0.80719104  0.27461569    -0.26300
O513        O  0.23124640  0.90730640  0.25303348    -0.58200
H514        H  0.22150133  0.89763901  0.35161036     0.16400
O515        O  0.08952761  0.77496029  0.35252808    -0.59600
H516        H  0.09995673  0.78319777  0.25313328     0.14800
H517        H  0.21981344  0.92729080  0.07950971     0.46700
H518        H  0.25225137  0.89778037  0.24570031     0.42100
H519        H  0.07331399  0.78995518  0.35990075     0.45500
H520        H  0.18818856  0.77758468  0.20002869     0.37000
C521        C  0.37738944  0.67626379  0.83784589    -0.27200
C522        C  0.34108874  0.66788441  0.80906786     0.02400
C523        C  0.30452703  0.66315495  0.83503947     0.30400
C524        C  0.30367428  0.66441649  0.88886676    -0.19000
C525        C  0.33764741  0.66724858  0.91848523    -0.28400
C526        C  0.37633918  0.67730374  0.89196489     0.44500
C527        C  0.34195894  0.66684481  0.75192716     0.05700
O528        O  0.26974018  0.65839612  0.80801336    -0.57000
H529        H  0.27707701  0.66543880  0.90671317     0.18600
O530        O  0.41367134  0.68927497  0.91833311    -0.63700
H531        H  0.40671987  0.68228921  0.81834759     0.17000
C532        C  0.37212299  0.70282327  0.72354197     0.29300
C533        C  0.36971875  0.70243994  0.66967791    -0.24600
C534        C  0.33643155  0.66711946  0.64280565    -0.23900
C535        C  0.30936630  0.62934737  0.67144953     0.40700
C536        C  0.31136140  0.62990442  0.72544476    -0.26300
O537        O  0.40319077  0.73913378  0.74817806    -0.58200
H538        H  0.39526133  0.72951963  0.64940050     0.16400
O539        O  0.28153071  0.59131707  0.64719797    -0.59600
H540        H  0.28915281  0.60118716  0.74678969     0.14800
H541        H  0.42867789  0.72114836  0.92065587     0.46700
H542        H  0.43008160  0.73797188  0.74488544     0.42100
H543        H  0.29775657  0.57595840  0.64308285     0.45500
H544        H  0.27640174  0.68816515  0.80068982     0.37000
C545        C  0.31156106  0.67604610  0.33586631    -0.27200
C546        C  0.34128197  0.66867746  0.30916224     0.02400
C547        C  0.37183862  0.66401108  0.33723574     0.30400
C548        C  0.37065845  0.66422590  0.39117437    -0.19000
C549        C  0.33750363  0.66611500  0.41845280    -0.28400
C550        C  0.31059324  0.67644460  0.38987306     0.44500
C551        C  0.34042469  0.66683215  0.25209266     0.05700
O552        O  0.40307347  0.65931106  0.31238994    -0.57000
H553        H  0.39693180  0.66449670  0.41111466     0.18600
O554        O  0.28423323  0.68845310  0.41410800    -0.63700
H555        H  0.28954810  0.68238671  0.31467026     0.17000
C556        C  0.30334305  0.63572306  0.22625589     0.29300
C557        C  0.30191921  0.63552058  0.17237607    -0.24600
C558        C  0.33665049  0.66698235  0.14291918    -0.23900
C559        C  0.37566347  0.69473405  0.16913629     0.40700
C560        C  0.37684092  0.69546837  0.22316227    -0.26300
O561        O  0.26855800  0.60472969  0.25340336    -0.58200
H562        H  0.27408439  0.60930709  0.15410658     0.16400
O563        O  0.41318609  0.72069469  0.14255845    -0.59600
H564        H  0.40638373  0.71836188  0.24250573     0.14800
H565        H  0.30120626  0.72037244  0.41559576     0.46700
H566        H  0.27418165  0.58063449  0.25733120     0.42100
H567        H  0.42685286  0.70298667  0.13723504     0.45500
H568        H  0.39011502  0.62779547  0.30732497     0.37000
C569        C  0.83416855  0.16672921  0.08392902     0.30400
C570        C  0.83464207  0.16504943  0.97770257     0.30400
C571        C  0.85514464  0.14297869  0.05832832    -0.05800
C572        C  0.78908818  0.14529111  0.05785911    -0.06600
C573        C  0.85709391  0.21093979  0.05685537    -0.06500
C574        C  0.85510125  0.14211539  0.00458310    -0.05800
C575        C  0.78966966  0.14290926  0.00386424    -0.06600
C576        C  0.85724967  0.20961313  0.00311218    -0.06500
C577        C  0.87330487  0.11829082  0.98929360    -0.31900
N578        N  0.88524848  0.10549358  0.03179400     0.14600
C579        C  0.87405234  0.11981597  0.07445273    -0.31900
H580        H  0.87943635  0.11404419  0.11384772     0.16600
C581        C  0.74735418  0.11958157  0.98819529    -0.30900
N582        N  0.72135507  0.11199934  0.02949634     0.13400
C583        C  0.74603633  0.12807049  0.07225920    -0.30800
C584        C  0.87770070  0.25128608  0.98567071    -0.31100
N585        N  0.89016722  0.27793763  0.02708096     0.13900
H586        H  0.88340502  0.26161378  0.94580346     0.16500
C587        C  0.87753062  0.25404340  0.07079821    -0.31100
H588        H  0.88253303  0.26717985  0.10947359     0.16500
H589        H  0.73329064  0.12743219  0.11040078     0.16500
H590        H  0.87734563  0.11029320  0.95008739     0.16600
H591        H  0.73548751  0.10835987  0.94970569     0.16500
C592        C  0.83551371  0.16422301  0.47762697     0.30400
C593        C  0.83474934  0.16724735  0.58373800     0.30400
C594        C  0.85590390  0.14150057  0.50555621    -0.05800
C595        C  0.85839912  0.20905535  0.50204578    -0.06600
C596        C  0.79062625  0.14266692  0.50349236    -0.06500
C597        C  0.85683798  0.14421556  0.55923607    -0.05800
C598        C  0.85719852  0.21128028  0.55569540    -0.06600
C599        C  0.78974188  0.14449744  0.55743592    -0.06500
C600        C  0.87810491  0.12369403  0.57662390    -0.31900
N601        N  0.88761684  0.10691795  0.53497541     0.14600
C602        C  0.87305742  0.11629971  0.49203662    -0.31900
H603        H  0.87520974  0.10522619  0.45383771     0.16600
C604        C  0.87381647  0.25450356  0.56768110    -0.30900
N605        N  0.88757636  0.27755353  0.52338546     0.13400
C606        C  0.87829739  0.25024222  0.48315680    -0.30800
C607        C  0.74640360  0.12391589  0.57180893    -0.31100
N608        N  0.72200225  0.10924333  0.52844795     0.13900
H609        H  0.73353605  0.11982791  0.61059843     0.16500
C610        C  0.74857141  0.11993501  0.48697129    -0.31100
H611        H  0.73776767  0.11114115  0.44758081     0.16500
H612        H  0.88400175  0.25966715  0.44297632     0.16500
H613        H  0.88573446  0.12090671  0.61617495     0.16600
H614        H  0.87495577  0.26842689  0.60516522     0.16500
C615        C  0.66370042  0.33456313  0.02270092     0.30400
C616        C  0.66591422  0.33400275  0.91648796     0.30400
C617        C  0.64235361  0.35645991  0.99547296    -0.05800
C618        C  0.70841826  0.35562974  0.99749956    -0.06600
C619        C  0.64019420  0.28970209  0.99688844    -0.07900
C620        C  0.64440514  0.35742713  0.94177244    -0.05800
C621        C  0.71003760  0.35465987  0.94378943    -0.06600
C622        C  0.64197516  0.28893243  0.94284490    -0.06500
C623        C  0.62486300  0.38002496  0.92558324    -0.31900
N624        N  0.61011264  0.39100060  0.96809788     0.14600
C625        C  0.61960662  0.37587399  0.01048311    -0.31900
H626        H  0.61091814  0.37946664  0.04953634     0.16600
C627        C  0.75314786  0.37227992  0.93031620    -0.30900
N628        N  0.77685013  0.38530036  0.97417592     0.13400
C629        C  0.74994655  0.37519461  0.01525821    -0.30800
C630        C  0.62205524  0.24565105  0.92869344    -0.31100
N631        N  0.60653268  0.22135559  0.97189893     0.13900
H632        H  0.61979700  0.23239647  0.89052584     0.16500
C633        C  0.61633192  0.24761193  0.01319901    -0.31100
H634        H  0.60565729  0.23614178  0.05201799     0.16500
H635        H  0.75995275  0.38099730  0.05519969     0.16500
H636        H  0.62130640  0.38751734  0.88623489     0.16600
H637        H  0.76638889  0.37566073  0.89181729     0.16500
C638        C  0.66437307  0.33317680  0.41626139     0.30400
C639        C  0.66370597  0.33532740  0.52240001     0.30400
C640        C  0.64235911  0.35599248  0.44121724    -0.05800
C641        C  0.64180168  0.28865725  0.44358343    -0.06600
C642        C  0.70906074  0.35548179  0.44260296    -0.06500
C643        C  0.64175359  0.35683232  0.49500605    -0.05800
C644        C  0.64015570  0.29020061  0.49748459    -0.06600
C645        C  0.70808145  0.35639546  0.49634566    -0.06500
C646        C  0.61762206  0.37512522  0.50903576    -0.31900
N647        N  0.60575897  0.38726646  0.46600063     0.14600
C648        C  0.61993351  0.37531390  0.42398437    -0.31900
H649        H  0.61419982  0.38007964  0.38432550     0.16600
C650        C  0.61786290  0.24840330  0.51491756    -0.30900
N651        N  0.60868381  0.22153911  0.47412941     0.13400
C652        C  0.62367352  0.24542785  0.43039376    -0.30800
C653        C  0.74984914  0.37692255  0.51341349    -0.31100
N654        N  0.77637417  0.38832957  0.47186194     0.13900
H655        H  0.76034445  0.38360416  0.55314235     0.16500
C656        C  0.75228113  0.37513020  0.42840088    -0.31100
H657        H  0.76555151  0.37922119  0.38984794     0.16500
H658        H  0.62178276  0.23227118  0.39219267     0.16500
H659        H  0.60746721  0.37814962  0.54745469     0.16600
H660        H  0.61007913  0.23800768  0.55462106     0.16500
O661        O  0.55412801  0.48119314  0.03468019    -0.88000
C662        C  0.56661861  0.06517196  0.92213258     0.88100
Mg663      Mg  0.50582005  0.41404378  0.03268138     1.58100
O664        O  0.51873637  0.07392169  0.03723574    -0.87700
O665        O  0.57414580  0.03669257  0.08592587    -0.75000
C666        C  0.82268307  0.40635807  0.97841879     0.93100
O667        O  0.53524733  0.46277828  0.91320119    -0.74900
O668        O  0.84153250  0.38538338  0.96794264    -0.82400
Mg669      Mg  0.59210418  0.00750202  0.96502630     1.58000
C670        C  0.90704895  0.08167896  0.02915231     0.93000
O671        O  0.65502134  0.05323556  0.00756214    -0.80600
H672        H  0.52175190  0.08474874  0.11323650    -0.06000
C673        C  0.93347784  0.50120873  0.92419209     0.88000
O674        O  0.96116773  0.42451334  0.08666079    -0.75100
O675        O  0.57386216  0.05563270  0.96503611    -0.87900
O676        O  0.94554741  0.10069665  0.01147680    -0.80700
C677        C  0.58294197  0.17544853  0.97581512     0.93100
C678        C  0.67547197  0.09155246  0.02545617     0.93000
Mg679      Mg  0.90622181  0.49123846  0.03762065     1.58000
O680        O  0.84270871  0.44447717  0.99689548    -0.80600
O681        O  0.96341228  0.03692247  0.08860833    -0.74900
O682        O  0.60248785  0.15656881  0.99222411    -0.80700
O683        O  0.61148069  0.45632117  0.96357750    -0.82400
O684        O  0.89552957  0.34318629  0.00745138    -0.80700
C685        C  0.00219460  0.06653068  0.08073500     0.87400
O686        O  0.92481963  0.44352974  0.03720614    -0.87900
O687        O  0.94387875  0.01749586  0.96757507    -0.88000
O688        O  0.92352896  0.46253487  0.91566606    -0.75000
Mg689      Mg  0.58590997  0.09345190  0.03473556     1.58000
O690        O  0.54241662  0.15553621  0.96840146    -0.82400
H691        H  0.56258437  0.47833962  0.11034342    -0.06100
O692        O  0.97962845  0.42607526  0.96424129    -0.87700
H693        H  0.97670677  0.41567350  0.88814519    -0.06000
H694        H  0.91362377  0.43444769  0.11305305    -0.06100
C695        C  0.49627838  0.43353404  0.92079993     0.87400
C696        C  0.56400184  0.99782554  0.07801149     0.88000
C697        C  0.93183925  0.43367105  0.08004213     0.88000
H698        H  0.93440749  0.02088082  0.89233740    -0.06100
O699        O  0.53710182  0.07407247  0.91541668    -0.75100
Mg700      Mg  0.91254030  0.40621330  0.96667563     1.58000
H701        H  0.58483826  0.06437092  0.88914095    -0.06100
C702        C  0.58937735  0.41583956  0.97119684     0.93000
O703        O  0.95488506  0.34316390  0.03155809    -0.82400
C704        C  0.91448648  0.32374895  0.02341564     0.93100
O705        O  0.65719427  0.11342954  0.03424636    -0.82400
Mg706      Mg  0.99184363  0.08459189  0.96846989     1.58200
O707        O  0.55077647  0.39733241  0.98826960    -0.80700
O708        O  0.88598226  0.04146563  0.03842495    -0.82400
O709        O  0.97936877  0.05390533  0.46767619    -0.88000
C710        C  0.56380116  0.06552859  0.57972893     0.88100
Mg711      Mg  0.91222767  0.00502116  0.46831209     1.58100
O712        O  0.57398315  0.02055730  0.46299149    -0.87700
O713        O  0.53543876  0.07543000  0.41663981    -0.75000
C714        C  0.90727931  0.32308165  0.51814305     0.93100
O715        O  0.96023152  0.03193321  0.58843143    -0.74900
O716        O  0.88539697  0.34090760  0.52881803    -0.82400
Mg717      Mg  0.50502473  0.09033402  0.53838907     1.58000
C718        C  0.58222967  0.40930361  0.46793804     0.93000
O719        O  0.55077817  0.15475050  0.49773181    -0.80600
H720        H  0.58525284  0.02522755  0.38699453    -0.06000
C721        C  0.00059267  0.43304598  0.57400041     0.88000
O722        O  0.92399891  0.46234912  0.41265349    -0.75100
O723        O  0.55414345  0.07325637  0.53717887    -0.87900
O724        O  0.60122094  0.44753447  0.48617873    -0.80700
C725        C  0.67586492  0.08502707  0.52458281     0.93100
C726        C  0.58895917  0.17577930  0.47909224     0.93000
Mg727      Mg  0.99166455  0.40806278  0.45989960     1.58000
O728        O  0.94536431  0.34393394  0.49946400    -0.80600
O729        O  0.53737625  0.46636326  0.41026363    -0.74900
O730        O  0.65642360  0.10421323  0.50872321    -0.80700
O731        O  0.95287822  0.10834481  0.54088566    -0.82400
O732        O  0.84201349  0.39390633  0.49021223    -0.80700
C733        C  0.56688974  0.50495336  0.41906761     0.87400
O734        O  0.94331623  0.42570969  0.46106952    -0.87900
O735        O  0.51741811  0.44435778  0.53087504    -0.88000
O736        O  0.96156383  0.42229590  0.58219054    -0.75000
Mg737      Mg  0.59249231  0.08724259  0.46722710     1.58000
O738        O  0.65624442  0.04439976  0.53155747    -0.82400
H739        H  0.97695634  0.06358450  0.39227085    -0.06100
O740        O  0.92394325  0.47770304  0.53569072    -0.87700
H741        H  0.91298749  0.47276664  0.61175292    -0.06000
H742        H  0.93510880  0.41599385  0.38497834    -0.06100
C743        C  0.93104206  0.99321248  0.57965399     0.87400
C744        C  0.49634425  0.06470833  0.42452818     0.88000
C745        C  0.93366791  0.43333690  0.41845718     0.88000
H746        H  0.52004760  0.43376823  0.60595974    -0.06100
O747        O  0.57335858  0.03641040  0.58546280    -0.75100
Mg748      Mg  0.90511231  0.41125651  0.53133311     1.58000
H749        H  0.56256480  0.08295552  0.61323577    -0.06100
C750        C  0.91247754  0.08623107  0.53253026     0.93000
O751        O  0.84139644  0.45335980  0.46826016    -0.82400
C752        C  0.82226671  0.41283392  0.47521994     0.93100
O753        O  0.61119242  0.15804632  0.46918830    -0.82400
Mg754      Mg  0.58475521  0.49278980  0.53080635     1.58200
O755        O  0.89433831  0.04805097  0.51451154    -0.80700
O756        O  0.54210575  0.38843488  0.45823977    -0.82400
C757        C  0.67598860  0.31088350  0.66391331    -0.27200
C758        C  0.66907158  0.34074380  0.69089394     0.02400
C759        C  0.66507081  0.37180264  0.66303664     0.30400
C760        C  0.66536226  0.37095934  0.60908317    -0.19000
C761        C  0.66666141  0.33768935  0.58154856    -0.28400
C762        C  0.67650317  0.31028871  0.60985627     0.44500
C763        C  0.66723892  0.33976932  0.74801954     0.05700
O764        O  0.66094981  0.40322210  0.68813245    -0.57000
H765        H  0.66621078  0.39758478  0.58935011     0.18600
O766        O  0.68801644  0.28371027  0.58528855    -0.63700
H767        H  0.68190090  0.28849137  0.68490444     0.17000
C768        C  0.63492276  0.30347480  0.77405467     0.29300
C769        C  0.63402179  0.30249696  0.82802396    -0.24600
C770        C  0.66654111  0.33631527  0.85738298    -0.23900
C771        C  0.69608456  0.37453435  0.83086060     0.40700
C772        C  0.69700443  0.37557261  0.77678442    -0.26300
O773        O  0.60272798  0.26969959  0.74702862    -0.58200
H774        H  0.60653383  0.27582048  0.84635686     0.16400
O775        O  0.72364918  0.41148412  0.85721955    -0.59600
H776        H  0.72095146  0.40455733  0.75724099     0.14800
H777        H  0.71999156  0.30038420  0.58349062     0.46700
H778        H  0.61122814  0.24746326  0.74557142     0.42100
H779        H  0.70787732  0.42730185  0.86134253     0.45500
H780        H  0.62946913  0.39057884  0.69367709     0.37000
C781        C  0.67279439  0.37600623  0.16253225    -0.27200
C782        C  0.66485583  0.33979268  0.19120476     0.02400
C783        C  0.66164011  0.30394755  0.16512588     0.30400
C784        C  0.66327036  0.30346953  0.11129038    -0.19000
C785        C  0.66553021  0.33727756  0.08186231    -0.28400
C786        C  0.67501018  0.37559833  0.10854035     0.44500
C787        C  0.66312752  0.34030827  0.24835000     0.05700
O788        O  0.65810666  0.26960400  0.19201332    -0.57000
H789        H  0.66479928  0.27725416  0.09316012     0.18600
O790        O  0.68798860  0.41332526  0.08257449    -0.63700
H791        H  0.67789285  0.40493846  0.18202196     0.17000
C792        C  0.69704384  0.37297375  0.27706512     0.29300
C793        C  0.69637906  0.37054353  0.33085044    -0.24600
C794        C  0.66349987  0.33458541  0.35732214    -0.23900
C795        C  0.62686985  0.30502071  0.32858010     0.40700
C796        C  0.62757039  0.30719097  0.27461570    -0.26300
O797        O  0.73124631  0.40730645  0.25303347    -0.58200
H798        H  0.72150129  0.39763909  0.35161033     0.16400
O799        O  0.58952776  0.27496027  0.35252811    -0.59600
H800        H  0.59995674  0.28319767  0.25313333     0.14800
H801        H  0.71981339  0.42729097  0.07950960     0.46700
H802        H  0.75225106  0.39778060  0.24570049     0.42100
H803        H  0.57331431  0.28995498  0.35990056     0.45500
H804        H  0.68818881  0.27758493  0.20002854     0.37000
C805        C  0.87738946  0.17626382  0.83784590    -0.27200
C806        C  0.84108873  0.16788436  0.80906787     0.02400
C807        C  0.80452706  0.16315498  0.83503947     0.30400
C808        C  0.80367428  0.16441655  0.88886675    -0.19000
C809        C  0.83764738  0.16724859  0.91848523    -0.28400
C810        C  0.87633917  0.17730375  0.89196490     0.44500
C811        C  0.84195892  0.16684474  0.75192717     0.05700
O812        O  0.76974024  0.15839613  0.80801331    -0.57000
H813        H  0.77707699  0.16543886  0.90671312     0.18600
O814        O  0.91367132  0.18927502  0.91833314    -0.63700
H815        H  0.90671992  0.18228927  0.81834762     0.17000
C816        C  0.87212298  0.20282318  0.72354200     0.29300
C817        C  0.86971881  0.20243986  0.66967795    -0.24600
C818        C  0.83643164  0.16711939  0.64280567    -0.23900
C819        C  0.80936636  0.12934734  0.67144951     0.40700
C820        C  0.81136136  0.12990437  0.72544473    -0.26300
O821        O  0.90319082  0.23913367  0.74817807    -0.58200
H822        H  0.89526138  0.22951958  0.64940056     0.16400
O823        O  0.78153062  0.09131708  0.64719792    -0.59600
H824        H  0.78915266  0.10118710  0.74678959     0.14800
H825        H  0.92867784  0.22114840  0.92065589     0.46700
H826        H  0.93008163  0.23797172  0.74488531     0.42100
H827        H  0.79775615  0.07595847  0.64308272     0.45500
H828        H  0.77640172  0.18816503  0.80068994     0.37000
C829        C  0.81156105  0.17604613  0.33586632    -0.27200
C830        C  0.84128195  0.16867747  0.30916224     0.02400
C831        C  0.87183864  0.16401111  0.33723575     0.30400
C832        C  0.87065846  0.16422592  0.39117439    -0.19000
C833        C  0.83750362  0.16611498  0.41845282    -0.28400
C834        C  0.81059323  0.17644459  0.38987306     0.44500
C835        C  0.84042464  0.16683213  0.25209266     0.05700
O836        O  0.90307352  0.15931112  0.31238997    -0.57000
H837        H  0.89693178  0.16449671  0.41111472     0.18600
O838        O  0.78423301  0.18845285  0.41410802    -0.63700
H839        H  0.78954805  0.18238668  0.31467030     0.17000
C840        C  0.80334305  0.13572286  0.22625588     0.29300
C841        C  0.80191925  0.13552049  0.17237605    -0.24600
C842        C  0.83665047  0.16698239  0.14291919    -0.23900
C843        C  0.87566349  0.19473413  0.16913629     0.40700
C844        C  0.87684087  0.19546842  0.22316230    -0.26300
O845        O  0.76855792  0.10472952  0.25340331    -0.58200
H846        H  0.77408448  0.10930696  0.15410653     0.16400
O847        O  0.91318615  0.22069465  0.14255848    -0.59600
H848        H  0.90638367  0.21836190  0.24250579     0.14800
H849        H  0.80120564  0.22037172  0.41559603     0.46700
H850        H  0.77418154  0.08063402  0.25733136     0.42100
H851        H  0.92685294  0.20298629  0.13723501     0.45500
H852        H  0.89011507  0.12779549  0.30732486     0.37000
C853        C  0.83416859  0.66672920  0.08392902     0.30400
C854        C  0.83464212  0.66504943  0.97770257     0.30400
C855        C  0.85514475  0.64297875  0.05832831    -0.05800
C856        C  0.78908822  0.64529114  0.05785911    -0.06600
C857        C  0.85709397  0.71093978  0.05685538    -0.06500
C858        C  0.85510133  0.64211543  0.00458310    -0.05800
C859        C  0.78966970  0.64290926  0.00386425    -0.06600
C860        C  0.85724973  0.70961312  0.00311218    -0.06500
C861        C  0.87330495  0.61829086  0.98929360    -0.31900
N862        N  0.88524861  0.60549366  0.03179400     0.14600
C863        C  0.87405244  0.61981604  0.07445273    -0.31900
H864        H  0.87943634  0.61404416  0.11384773     0.16600
C865        C  0.74735421  0.61958159  0.98819530    -0.30900
N866        N  0.72135511  0.61199950  0.02949632     0.13400
C867        C  0.74603638  0.62807070  0.07225917    -0.30800
C868        C  0.87770079  0.75128606  0.98567070    -0.31100
N869        N  0.89016731  0.77793761  0.02708096     0.13900
H870        H  0.88340510  0.76161376  0.94580346     0.16500
C871        C  0.87753069  0.75404339  0.07079821    -0.31100
H872        H  0.88253309  0.76717983  0.10947359     0.16500
H873        H  0.73329068  0.62743246  0.11040073     0.16500
H874        H  0.87734565  0.61029317  0.95008740     0.16600
H875        H  0.73548751  0.60835975  0.94970574     0.16500
C876        C  0.83551371  0.66422303  0.47762695     0.30400
C877        C  0.83474927  0.66724736  0.58373797     0.30400
C878        C  0.85590387  0.64150056  0.50555621    -0.05800
C879        C  0.85839912  0.70905539  0.50204575    -0.06600
C880        C  0.79062621  0.64266691  0.50349233    -0.06500
C881        C  0.85683791  0.64421554  0.55923606    -0.05800
C882        C  0.85719852  0.71128031  0.55569537    -0.06600
C883        C  0.78974183  0.64449744  0.55743587    -0.06500
C884        C  0.87810486  0.62369403  0.57662388    -0.31900
N885        N  0.88761677  0.60691790  0.53497540     0.14600
C886        C  0.87305738  0.61629971  0.49203662    -0.31900
H887        H  0.87520978  0.60522628  0.45383771     0.16600
C888        C  0.87381649  0.75450359  0.56768110    -0.30900
N889        N  0.88757631  0.77755359  0.52338547     0.13400
C890        C  0.87829740  0.75024230  0.48315680    -0.30800
C891        C  0.74640355  0.62391592  0.57180891    -0.31100
N892        N  0.72200220  0.60924343  0.52844795     0.13900
H893        H  0.73353601  0.61982797  0.61059840     0.16500
C894        C  0.74857134  0.61993504  0.48697129    -0.31100
H895        H  0.73776755  0.61114122  0.44758083     0.16500
H896        H  0.88400182  0.75966726  0.44297633     0.16500
H897        H  0.88573450  0.62090682  0.61617491     0.16600
H898        H  0.87495578  0.76842690  0.60516524     0.16500
C899        C  0.66370039  0.83456309  0.02270091     0.30400
C900        C  0.66591420  0.83400274  0.91648796     0.30400
C901        C  0.64235356  0.85645986  0.99547296    -0.05800
C902        C  0.70841824  0.85562970  0.99749956    -0.06600
C903        C  0.64019412  0.78970206  0.99688844    -0.07900
C904        C  0.64440509  0.85742710  0.94177243    -0.05800
C905        C  0.71003758  0.85465986  0.94378943    -0.06600
C906        C  0.64197514  0.78893240  0.94284490    -0.06500
C907        C  0.62486307  0.88002506  0.92558324    -0.31900
N908        N  0.61011263  0.89100060  0.96809790     0.14600
C909        C  0.61960659  0.87587396  0.01048313    -0.31900
H910        H  0.61091813  0.87946668  0.04953635     0.16600
C911        C  0.75314784  0.87227992  0.93031620    -0.30900
N912        N  0.77685014  0.88530046  0.97417590     0.13400
C913        C  0.74994655  0.87519462  0.01525821    -0.30800
C914        C  0.62205528  0.74565102  0.92869345    -0.31100
N915        N  0.60653260  0.72135556  0.97189893     0.13900
H916        H  0.61979712  0.73239646  0.89052586     0.16500
C917        C  0.61633177  0.74761190  0.01319901    -0.31100
H918        H  0.60565718  0.73614176  0.05201801     0.16500
H919        H  0.75995281  0.88099732  0.05519967     0.16500
H920        H  0.62130656  0.88751759  0.88623493     0.16600
H921        H  0.76638887  0.87566065  0.89181730     0.16500
C922        C  0.66437308  0.83317680  0.41626137     0.30400
C923        C  0.66370601  0.83532739  0.52239998     0.30400
C924        C  0.64235910  0.85599244  0.44121722    -0.05800
C925        C  0.64180178  0.78865726  0.44358341    -0.06600
C926        C  0.70906077  0.85548190  0.44260293    -0.06500
C927        C  0.64175361  0.85683230  0.49500604    -0.05800
C928        C  0.64015580  0.79020060  0.49748454    -0.06600
C929        C  0.70808149  0.85639552  0.49634565    -0.06500
C930        C  0.61762213  0.87512524  0.50903574    -0.31900
N931        N  0.60575910  0.88726654  0.46600060     0.14600
C932        C  0.61993357  0.87531392  0.42398433    -0.31900
H933        H  0.61419985  0.88007962  0.38432546     0.16600
C934        C  0.61786296  0.74840327  0.51491748    -0.30900
N935        N  0.60868386  0.72153909  0.47412937     0.13400
C936        C  0.62367359  0.74542785  0.43039374    -0.30800
C937        C  0.74984919  0.87692262  0.51341350    -0.31100
N938        N  0.77637422  0.88832970  0.47186194     0.13900
H939        H  0.76034449  0.88360416  0.55314237     0.16500
C940        C  0.75228116  0.87513031  0.42840087    -0.31100
H941        H  0.76555152  0.87922116  0.38984794     0.16500
H942        H  0.62178278  0.73227118  0.39219265     0.16500
H943        H  0.60746719  0.87814955  0.54745467     0.16600
H944        H  0.61007909  0.73800762  0.55462095     0.16500
O945        O  0.55412794  0.98119324  0.03468014    -0.88000
C946        C  0.56661853  0.56517193  0.92213260     0.88100
Mg947      Mg  0.50582006  0.91404385  0.03268137     1.58100
O948        O  0.51873634  0.57392165  0.03723575    -0.87700
O949        O  0.57414577  0.53669251  0.08592581    -0.75000
C950        C  0.82268306  0.90635809  0.97841876     0.93100
O951        O  0.53524740  0.96277832  0.91320115    -0.74900
O952        O  0.84153244  0.88538334  0.96794261    -0.82400
Mg953      Mg  0.59210418  0.50750201  0.96502631     1.58000
C954        C  0.90704900  0.58167897  0.02915231     0.93000
O955        O  0.65502145  0.55323556  0.00756215    -0.80600
H956        H  0.52175185  0.58474886  0.11323645    -0.06000
C957        C  0.93347783  0.00120882  0.92419211     0.88000
O958        O  0.96116791  0.92451356  0.08666083    -0.75100
O959        O  0.57386206  0.55563264  0.96503614    -0.87900
O960        O  0.94554746  0.60069660  0.01147680    -0.80700
C961        C  0.58294198  0.67544849  0.97581512     0.93100
C962        C  0.67547200  0.59155248  0.02545616     0.93000
Mg963      Mg  0.90622184  0.99123847  0.03762066     1.58000
O964        O  0.84270877  0.94447717  0.99689551    -0.80600
O965        O  0.96341226  0.53692243  0.08860833    -0.74900
O966        O  0.60248791  0.65656883  0.99222410    -0.80700
O967        O  0.61148071  0.95632116  0.96357752    -0.82400
O968        O  0.89552964  0.84318626  0.00745137    -0.80700
C969        C  0.00219456  0.56653069  0.08073499     0.87400
O970        O  0.92481969  0.94352977  0.03720614    -0.87900
O971        O  0.94387881  0.51749579  0.96757505    -0.88000
O972        O  0.92352909  0.96253501  0.91566604    -0.75000
Mg973      Mg  0.58590993  0.59345186  0.03473556     1.58000
O974        O  0.54241663  0.65553612  0.96840146    -0.82400
H975        H  0.56258451  0.97833969  0.11034332    -0.06100
O976        O  0.97962852  0.92607544  0.96424131    -0.87700
H977        H  0.97670674  0.91567375  0.88814518    -0.06000
H978        H  0.91362403  0.93444800  0.11305311    -0.06100
C979        C  0.49627841  0.93353420  0.92079993     0.87400
C980        C  0.56400180  0.49782547  0.07801153     0.88000
C981        C  0.93183941  0.93367122  0.08004215     0.88000
H982        H  0.93440757  0.52088073  0.89233734    -0.06100
O983        O  0.53710174  0.57407243  0.91541665    -0.75100
Mg984      Mg  0.91254035  0.90621333  0.96667561     1.58000
H985        H  0.58483820  0.56437095  0.88914096    -0.06100
C986        C  0.58937736  0.91583956  0.97119687     0.93000
O987        O  0.95488512  0.84316389  0.03155810    -0.82400
C988        C  0.91448655  0.82374892  0.02341564     0.93100
O989        O  0.65719420  0.61342948  0.03424636    -0.82400
Mg990      Mg  0.99184367  0.58459186  0.96846989     1.58200
O991        O  0.55077647  0.89733242  0.98826963    -0.80700
O992        O  0.88598226  0.54146565  0.03842494    -0.82400
O993        O  0.97936878  0.55390527  0.46767616    -0.88000
C994        C  0.56380117  0.56552860  0.57972893     0.88100
Mg995      Mg  0.91222761  0.50502110  0.46831202     1.58100
O996        O  0.57398302  0.52055727  0.46299151    -0.87700
O997        O  0.53543877  0.57542995  0.41663978    -0.75000
C998        C  0.90727934  0.82308172  0.51814307     0.93100
O999        O  0.96023146  0.53193321  0.58843143    -0.74900
O1000       O  0.88539706  0.84090774  0.52881809    -0.82400
Mg1001     Mg  0.50502474  0.59033400  0.53838907     1.58000
C1002       C  0.58222973  0.90930361  0.46793803     0.93000
O1003       O  0.55077819  0.65475051  0.49773185    -0.80600
H1004       H  0.58525301  0.52522750  0.38699462    -0.06000
C1005       C  0.00059267  0.93304599  0.57400040     0.88000
O1006       O  0.92399896  0.96234927  0.41265351    -0.75100
O1007       O  0.55414345  0.57325636  0.53717887    -0.87900
O1008       O  0.60122096  0.94753447  0.48617875    -0.80700
C1009       C  0.67586486  0.58502717  0.52458280     0.93100
C1010       C  0.58895917  0.67577927  0.47909221     0.93000
Mg1011     Mg  0.99166458  0.90806278  0.45989960     1.58000
O1012       O  0.94536432  0.84393395  0.49946395    -0.80600
O1013       O  0.53737630  0.96636325  0.41026366    -0.74900
O1014       O  0.65642353  0.60421334  0.50872326    -0.80700
O1015       O  0.95287817  0.60834475  0.54088570    -0.82400
O1016       O  0.84201352  0.89390633  0.49021222    -0.80700
C1017       C  0.56688975  0.00495338  0.41906759     0.87400
O1018       O  0.94331619  0.92570969  0.46106949    -0.87900
O1019       O  0.51741815  0.94435786  0.53087505    -0.88000
O1020       O  0.96156383  0.92229590  0.58219049    -0.75000
Mg1021     Mg  0.59249224  0.58724258  0.46722710     1.58000
O1022       O  0.65624437  0.54439986  0.53155741    -0.82400
H1023       H  0.97695638  0.56358449  0.39227083    -0.06100
O1024       O  0.92394331  0.97770305  0.53569070    -0.87700
H1025       H  0.91298738  0.97276672  0.61175289    -0.06000
H1026       H  0.93510874  0.91599400  0.38497825    -0.06100
C1027       C  0.93104206  0.49321246  0.57965401     0.87400
C1028       C  0.49634426  0.56470826  0.42452815     0.88000
C1029       C  0.93366788  0.93333698  0.41845716     0.88000
H1030       H  0.52004753  0.93376811  0.60595975    -0.06100
O1031       O  0.57335846  0.53641031  0.58546285    -0.75100
Mg1032     Mg  0.90511235  0.91125655  0.53133311     1.58000
H1033       H  0.56256487  0.58295560  0.61323573    -0.06100
C1034       C  0.91247750  0.58623104  0.53253019     0.93000
O1035       O  0.84139658  0.95335985  0.46826017    -0.82400
C1036       C  0.82226677  0.91283397  0.47521994     0.93100
O1037       O  0.61119236  0.65804626  0.46918823    -0.82400
Mg1038     Mg  0.58475527  0.99278982  0.53080638     1.58200
O1039       O  0.89433832  0.54805101  0.51451127    -0.80700
O1040       O  0.54210580  0.88843484  0.45823979    -0.82400
C1041       C  0.67598878  0.81088361  0.66391330    -0.27200
C1042       C  0.66907163  0.84074383  0.69089393     0.02400
C1043       C  0.66507069  0.87180255  0.66303662     0.30400
C1044       C  0.66536214  0.87095925  0.60908314    -0.19000
C1045       C  0.66666144  0.83768935  0.58154853    -0.28400
C1046       C  0.67650320  0.81028876  0.60985627     0.44500
C1047       C  0.66723899  0.83976933  0.74801953     0.05700
O1048       O  0.66094985  0.90322211  0.68813243    -0.57000
H1049       H  0.66621071  0.89758471  0.58935008     0.18600
O1050       O  0.68801628  0.78371017  0.58528854    -0.63700
H1051       H  0.68190116  0.78849154  0.68490444     0.17000
C1052       C  0.63492276  0.80347484  0.77405465     0.29300
C1053       C  0.63402178  0.80249704  0.82802395    -0.24600
C1054       C  0.66654115  0.83631531  0.85738298    -0.23900
C1055       C  0.69608466  0.87453437  0.83086060     0.40700
C1056       C  0.69700454  0.87557261  0.77678442    -0.26300
O1057       O  0.60272790  0.76969966  0.74702863    -0.58200
H1058       H  0.60653381  0.77582057  0.84635686     0.16400
O1059       O  0.72364929  0.91148421  0.85721951    -0.59600
H1060       H  0.72095156  0.90455730  0.75724097     0.14800
H1061       H  0.71999077  0.80038363  0.58349045     0.46700
H1062       H  0.61122807  0.74746333  0.74557118     0.42100
H1063       H  0.70787745  0.92730180  0.86134261     0.45500
H1064       H  0.62946921  0.89057896  0.69367719     0.37000
C1065       C  0.67279422  0.87600617  0.16253222    -0.27200
C1066       C  0.66485574  0.83979266  0.19120475     0.02400
C1067       C  0.66164012  0.80394756  0.16512589     0.30400
C1068       C  0.66327045  0.80346954  0.11129039    -0.19000
C1069       C  0.66553022  0.83727753  0.08186230    -0.28400
C1070       C  0.67501005  0.87559826  0.10854033     0.44500
C1071       C  0.66312749  0.84030829  0.24835001     0.05700
O1072       O  0.65810648  0.76960394  0.19201335    -0.57000
H1073       H  0.66479933  0.77725415  0.09316013     0.18600
O1074       O  0.68798865  0.91332523  0.08257449    -0.63700
H1075       H  0.67789271  0.90493842  0.18202192     0.17000
C1076       C  0.69704391  0.87297372  0.27706510     0.29300
C1077       C  0.69637908  0.87054348  0.33085044    -0.24600
C1078       C  0.66349980  0.83458541  0.35732214    -0.23900
C1079       C  0.62686972  0.80502075  0.32858012     0.40700
C1080       C  0.62757033  0.80719104  0.27461571    -0.26300
O1081       O  0.73124639  0.90730639  0.25303347    -0.58200
H1082       H  0.72150133  0.89763900  0.35161035     0.16400
O1083       O  0.58952761  0.77496029  0.35252809    -0.59600
H1084       H  0.59995670  0.78319776  0.25313331     0.14800
H1085       H  0.71981344  0.92729080  0.07950971     0.46700
H1086       H  0.75225136  0.89778036  0.24570031     0.42100
H1087       H  0.57331398  0.78995518  0.35990075     0.45500
H1088       H  0.68818856  0.77758472  0.20002867     0.37000
C1089       C  0.87738950  0.67626397  0.83784589    -0.27200
C1090       C  0.84108875  0.66788446  0.80906786     0.02400
C1091       C  0.80452703  0.66315494  0.83503947     0.30400
C1092       C  0.80367428  0.66441649  0.88886676    -0.19000
C1093       C  0.83764741  0.66724858  0.91848523    -0.28400
C1094       C  0.87633920  0.67730379  0.89196490     0.44500
C1095       C  0.84195894  0.66684482  0.75192716     0.05700
O1096       O  0.76974018  0.65839611  0.80801336    -0.57000
H1097       H  0.77707701  0.66543880  0.90671317     0.18600
O1098       O  0.91367134  0.68927497  0.91833313    -0.63700
H1099       H  0.90671997  0.68228950  0.81834760     0.17000
C1100       C  0.87212299  0.70282327  0.72354196     0.29300
C1101       C  0.86971875  0.70243994  0.66967791    -0.24600
C1102       C  0.83643155  0.66711946  0.64280565    -0.23900
C1103       C  0.80936629  0.62934737  0.67144953     0.40700
C1104       C  0.81136140  0.62990443  0.72544477    -0.26300
O1105       O  0.90319077  0.73913378  0.74817806    -0.58200
H1106       H  0.89526133  0.72951963  0.64940050     0.16400
O1107       O  0.78153071  0.59131707  0.64719797    -0.59600
H1108       H  0.78915281  0.60118716  0.74678970     0.14800
H1109       H  0.92867792  0.72114837  0.92065590     0.46700
H1110       H  0.93008160  0.73797189  0.74488543     0.42100
H1111       H  0.79775656  0.57595840  0.64308285     0.45500
H1112       H  0.77640173  0.68816514  0.80068982     0.37000
C1113       C  0.81156110  0.67604610  0.33586632    -0.27200
C1114       C  0.84128199  0.66867746  0.30916224     0.02400
C1115       C  0.87183864  0.66401108  0.33723573     0.30400
C1116       C  0.87065849  0.66422589  0.39117437    -0.19000
C1117       C  0.83750367  0.66611499  0.41845281    -0.28400
C1118       C  0.81059329  0.67644457  0.38987305     0.44500
C1119       C  0.84042469  0.66683215  0.25209266     0.05700
O1120       O  0.90307348  0.65931106  0.31238993    -0.57000
H1121       H  0.89693183  0.66449669  0.41111465     0.18600
O1122       O  0.78423307  0.68845281  0.41410800    -0.63700
H1123       H  0.78954810  0.68238666  0.31467029     0.17000
C1124       C  0.80334305  0.63572306  0.22625589     0.29300
C1125       C  0.80191920  0.63552058  0.17237606    -0.24600
C1126       C  0.83665049  0.66698235  0.14291918    -0.23900
C1127       C  0.87566347  0.69473405  0.16913629     0.40700
C1128       C  0.87684092  0.69546837  0.22316227    -0.26300
O1129       O  0.76855800  0.60472969  0.25340337    -0.58200
H1130       H  0.77408438  0.60930709  0.15410658     0.16400
O1131       O  0.91318609  0.72069469  0.14255845    -0.59600
H1132       H  0.90638373  0.71836187  0.24250573     0.14800
H1133       H  0.80120568  0.72037170  0.41559587     0.46700
H1134       H  0.77418164  0.58063449  0.25733120     0.42100
H1135       H  0.92685285  0.70298667  0.13723504     0.45500
H1136       H  0.89011502  0.62779546  0.30732496     0.37000
loop_ 
_geom_bond_atom_site_label_1 
_geom_bond_atom_site_label_2 
_geom_bond_distance 
_geom_bond_site_symmetry_2 
_ccdc_geom_bond_type 
C1            C3   1.542       .  S
C1            C5   1.542       .  S
C1            C4   1.557       .  S
C1          C274   1.532       .  S
C2            C6   1.531   1_556  S
C2            C8   1.529   1_556  S
C2            C7   1.545   1_556  S
C2          C241   1.537       .  S
C3           C11   1.385       .  A
C3            C6   1.393       .  A
C4           C15   1.392       .  A
C4            C7   1.402       .  A
C5           C19   1.385       .  A
C5            C8   1.393       .  A
C6            C9   1.371   1_554  A
C7           C13   1.376   1_554  A
C8           C16   1.371   1_554  A
C9           N10   1.352   1_556  A
C9           H22   1.082       .  S
N10          C11   1.358       .  A
N10         C102   1.426       .  S
C11          H12   1.082       .  S
C13          N14   1.349   1_556  A
C13          H23   1.081       .  S
N14          C15   1.356       .  A
N14         C110   1.430       .  S
C15          H21   1.081       .  S
C16          N17   1.353   1_556  A
C16          H18   1.083       .  S
N17          C19   1.356       .  A
N17         C136   1.425       .  S
C19          H20   1.082       .  S
C24          C26   1.536       .  S
C24          C28   1.540       .  S
C24          C27   1.526       .  S
C24         C265   1.535       .  S
C25          C29   1.540       .  S
C25          C31   1.556       .  S
C25          C30   1.549       .  S
C25         C250   1.533       .  S
C26          C34   1.373       .  A
C26          C29   1.393       .  A
C27          C38   1.370       .  A
C27          C30   1.394       .  A
C28          C42   1.375       .  A
C28          C31   1.400       .  A
C29          C32   1.385       .  A
C30          C36   1.388       .  A
C31          C39   1.392       .  A
C32          N33   1.356       .  A
C32          H45   1.082       .  S
N33          C34   1.350       .  A
N33         C182   1.425       .  S
C34          H35   1.081       .  S
C36          N37   1.356       .  A
C36          H46   1.081       .  S
N37          C38   1.350       .  A
N37         C146   1.425       .  S
C38          H44   1.083       .  S
C39          N40   1.361       .  A
C39          H41   1.082       .  S
N40          C42   1.352       .  A
N40         C157   1.434       .  S
C42          H43   1.082       .  S
C47          C49   1.530   1_554  S
C47          C51   1.542   1_554  S
C47          C50   1.528   1_554  S
C47         C217   1.536       .  S
C48          C52   1.544       .  S
C48          C54   1.558       .  S
C48          C53   1.545       .  S
C48         C202   1.534       .  S
C49          C57   1.371   1_556  A
C49          C52   1.393       .  A
C50          C61   1.370   1_556  A
C50          C53   1.394       .  A
C51          C65   1.376   1_556  A
C51          C54   1.402       .  A
C52          C55   1.387       .  A
C53          C59   1.386       .  A
C54          C62   1.392       .  A
C55          N56   1.359       .  A
C55          H68   1.082       .  S
N56          C57   1.351   1_556  A
N56         C134   1.427       .  S
C57          H58   1.082       .  S
C59          N60   1.358       .  A
C59          H69   1.082       .  S
N60          C61   1.353   1_556  A
N60          C98   1.427       .  S
C61          H67   1.083       .  S
C62          N63   1.356       .  A
C62          H64   1.081       .  S
N63          C65   1.348   1_556  A
N63         C109   1.428       .  S
C65          H66   1.081       .  S
C70          C72   1.537       .  S
C70          C74   1.548       .  S
C70          C73   1.554       .  S
C70         C226   1.530       .  S
C71          C75   1.538       .  S
C71          C77   1.528       .  S
C71          C76   1.540       .  S
C71         C193   1.536       .  S
C72          C80   1.384       .  A
C72          C75   1.394       .  A
C73          C84   1.389       .  A
C73          C76   1.400       .  A
C74          C88   1.388       .  A
C74          C77   1.394       .  A
C75          C78   1.374       .  A
C76          C82   1.375       .  A
C77          C85   1.370       .  A
C78          N79   1.350       .  A
C78          H91   1.081       .  S
N79          C80   1.355       .  A
N79         C150   1.424       .  S
C80          H81   1.082       .  S
C82          N83   1.352       .  A
C82          H92   1.082       .  S
N83          C84   1.359       .  A
N83         C158   1.431       .  S
C84          H90   1.082       .  S
C85          N86   1.352       .  A
C85          H87   1.083       .  S
N86          C88   1.356       .  A
N86         C184   1.426       .  S
C88          H89   1.081       .  S
O93         Mg95   2.145       .  S
O93        Mg385   2.165   1_554  S
O93         C412   1.236       .  S
C94         H133   1.081       .  S
C94         O107   1.235       .  S
C94         O131   1.269       .  A
Mg95        O692   2.163   1_454  S
Mg95        O139   2.289   1_554  S
Mg95        O703   2.263   1_455  S
Mg95        O674   2.289   1_455  S
O96        Mg121   2.146       .  S
O96        Mg706   2.164   1_454  S
O96         C685   1.235       .  S
O97         C128   1.270   1_545  A
O97        Mg121   2.295       .  S
C98         O100   1.271       .  A
C98         O112   1.274       .  A
O99         C127   1.269   1_455  A
O99        Mg385   2.292       .  S
O100       Mg132   2.266       .  S
Mg101       O107   2.142       .  S
Mg101       O377   2.165   1_546  S
Mg101       O103   2.298   1_556  S
Mg101       O383   2.292   1_545  S
Mg101       O399   2.277   1_545  S
C102        O140   1.271       .  A
C102        O108   1.275       .  A
O103        C110   1.275       .  A
H104        C685   1.081       .  S
C105        H414   1.081       .  S
C105        O403   1.234       .  S
C105        O120   1.267       .  A
O106        C129   1.268       .  A
O106       Mg663   2.289       .  S
O107       Mg121   2.164   1_556  S
O108       Mg138   2.298   1_554  S
C109        O122   1.272       .  A
C109        O114   1.278       .  A
C110        O137   1.274       .  A
Mg111       O118   2.136       .  S
Mg111       O403   2.168   1_554  S
Mg111       O112   2.298   1_554  S
Mg111       O397   2.295       .  S
Mg111       O424   2.266       .  S
O113        C117   1.269       .  A
O113       Mg395   2.295   1_545  S
O114       Mg121   2.320   1_556  S
O115        C134   1.273       .  A
O115       Mg385   2.277       .  S
O116        C136   1.273       .  A
O116       Mg132   2.292   1_554  S
C117        H672   1.081       .  S
C117        O664   1.235       .  S
O118       Mg132   2.172   1_554  S
O118        C129   1.235       .  S
O119       Mg138   2.140       .  S
O119       Mg395   2.168   1_546  S
O119        C389   1.234       .  S
O120       Mg132   2.288       .  S
Mg121       O137   2.284       .  S
O122       Mg706   2.261   1_455  S
H123        C412   1.081       .  S
O124       Mg132   2.140       .  S
O124       Mg663   2.163   1_556  S
O124        C695   1.235       .  S
H125        C695   1.081       .  S
H126        C129   1.081       .  S
C127        H693   1.081       .  S
C127        O692   1.235       .  S
C128        H407   1.081       .  S
C128        O377   1.236       .  S
H130        C389   1.081       .  S
O131       Mg706   2.293   1_455  S
C134        O139   1.273       .  A
O135        C136   1.271       .  A
O135       Mg663   2.263       .  S
Mg138       O664   2.164   1_556  S
Mg138       O690   2.261       .  S
Mg138       O699   2.293       .  S
O140       Mg395   2.266   1_545  S
O141       Mg143   2.147       .  S
O141       Mg717   2.167       .  S
O141        C744   1.236       .  S
C142        H181   1.081       .  S
C142        O155   1.235       .  S
C142        O179   1.268       .  A
Mg143       O456   2.158   1_545  S
Mg143       O187   2.284       .  S
Mg143       O467   2.266   1_545  S
Mg143       O438   2.288   1_545  S
O144       Mg169   2.143       .  S
O144       Mg470   2.162   1_545  S
O144        C449   1.236       .  S
O145        C176   1.269   1_455  A
O145       Mg169   2.295       .  S
C146        O148   1.270       .  A
C146        O160   1.273       .  A
O147        C175   1.269   1_545  A
O147       Mg717   2.293       .  S
O148       Mg180   2.257       .  S
Mg149       O155   2.145       .  S
Mg149       O709   2.167   1_455  S
Mg149       O151   2.307       .  S
Mg149       O715   2.293   1_455  S
Mg149       O731   2.274   1_455  S
C150        O188   1.270       .  A
C150        O156   1.275       .  A
O151        C158   1.276       .  A
H152        C449   1.081       .  S
C153        H746   1.081       .  S
C153        O735   1.235       .  S
C153        O168   1.268       .  A
O154        C177   1.268       .  A
O154       Mg427   2.288       .  S
O155       Mg169   2.168       .  S
O156       Mg186   2.298       .  S
C157        O170   1.274       .  A
C157        O162   1.279       .  A
C158        O185   1.274       .  A
Mg159       O166   2.132       .  S
Mg159       O735   2.172       .  S
Mg159       O160   2.292       .  S
Mg159       O729   2.293       .  S
Mg159       O756   2.256       .  S
O161        C165   1.269       .  A
O161       Mg727   2.293   1_455  S
O162       Mg169   2.329       .  S
O163        C182   1.273       .  A
O163       Mg717   2.274       .  S
O164        C184   1.273       .  A
O164       Mg180   2.296       .  S
C165        H436   1.081       .  S
C165        O428   1.236       .  S
O166       Mg180   2.171       .  S
O166        C177   1.235       .  S
O167       Mg186   2.148       .  S
O167       Mg727   2.172   1_455  S
O167        C721   1.235       .  S
O168       Mg180   2.289       .  S
Mg169       O185   2.283       .  S
O170       Mg470   2.283   1_545  S
H171        C744   1.081       .  S
O172       Mg180   2.132       .  S
O172       Mg427   2.158       .  S
O172        C459   1.235       .  S
H173        C459   1.081       .  S
H174        C177   1.081       .  S
C175        H457   1.081       .  S
C175        O456   1.235       .  S
C176        H739   1.081       .  S
C176        O709   1.236       .  S
H178        C721   1.081       .  S
O179       Mg470   2.291   1_545  S
C182        O187   1.272       .  A
O183        C184   1.272       .  A
O183       Mg427   2.266       .  S
Mg186       O428   2.162       .  S
Mg186       O454   2.283       .  S
Mg186       O463   2.291       .  S
O188       Mg727   2.256   1_455  S
C189        C190   1.401       .  A
C189        C194   1.401       .  A
C189        H199   1.084       .  S
C190        C191   1.404       .  A
C190        C195   1.481       .  S
C191        C192   1.399       .  A
C191        O196   1.372       .  S
C192        C193   1.410       .  A
C192        H197   1.077       .  S
C193        C194   1.417       .  A
C194        O198   1.371       .  S
C195        C200   1.403       .  A
C195        C204   1.401       .  A
O196        H212   0.992       .  S
O198        H209   0.991       .  S
C200        C201   1.399       .  A
C200        O205   1.372       .  S
C201        C202   1.409       .  A
C201        H206   1.077       .  S
C202        C203   1.418       .  A
C203        C204   1.402       .  A
C203        O207   1.371       .  S
C204        H208   1.084       .  S
O205        H210   0.992       .  S
O207        H211   0.992       .  S
C213        C214   1.402       .  A
C213        C218   1.401       .  A
C213        H223   1.083       .  S
C214        C215   1.404       .  A
C214        C219   1.482       .  S
C215        C216   1.396       .  A
C215        O220   1.372       .  S
C216        C217   1.408       .  A
C216        H221   1.077       .  S
C217        C218   1.418       .  A
C218        O222   1.371       .  S
C219        C224   1.404       .  A
C219        C228   1.402       .  A
O220        H236   0.992       .  S
O222        H233   0.992       .  S
C224        C225   1.397       .  A
C224        O229   1.372       .  S
C225        C226   1.410       .  A
C225        H230   1.079       .  S
C226        C227   1.416       .  A
C227        C228   1.401       .  A
C227        O231   1.370       .  S
C228        H232   1.084       .  S
O229        H234   0.992       .  S
O231        H235   0.992       .  S
C237        C238   1.402       .  A
C237        C242   1.404       .  A
C237        H247   1.083       .  S
C238        C239   1.403       .  A
C238        C243   1.482       .  S
C239        C240   1.396       .  A
C239        O244   1.372       .  S
C240        C241   1.408       .  A
C240        H245   1.075       .  S
C241        C242   1.419       .  A
C242        O246   1.371       .  S
C243        C248   1.403       .  A
C243        C252   1.402       .  A
O244        H260   0.992       .  S
O246        H257   0.991       .  S
C248        C249   1.399       .  A
C248        O253   1.372       .  S
C249        C250   1.411       .  A
C249        H254   1.077       .  S
C250        C251   1.416       .  A
C251        C252   1.401       .  A
C251        O255   1.371       .  S
C252        H256   1.084       .  S
O253        H258   0.992       .  S
O255        H259   0.991       .  S
C261        C262   1.401       .  A
C261        C266   1.400       .  A
C261        H271   1.084       .  S
C262        C263   1.404       .  A
C262        C267   1.480       .  S
C263        C264   1.398       .  A
C263        O268   1.372       .  S
C264        C265   1.411       .  A
C264        H269   1.077       .  S
C265        C266   1.417       .  A
C266        O270   1.371       .  S
C267        C272   1.404       .  A
C267        C276   1.400       .  A
O268        H284   0.992       .  S
O270        H281   0.991       .  S
C272        C273   1.398       .  A
C272        O277   1.372       .  S
C273        C274   1.408       .  A
C273        H278   1.077       .  S
C274        C275   1.419       .  A
C275        C276   1.401       .  A
C275        O279   1.371       .  S
C276        H280   1.084       .  S
O277        H282   0.992       .  S
O279        H283   0.991       .  S
C285        C287   1.542       .  S
C285        C289   1.542       .  S
C285        C288   1.557       .  S
C285        C558   1.532       .  S
C286        C290   1.531   1_556  S
C286        C292   1.529   1_556  S
C286        C291   1.545   1_556  S
C286        C525   1.537       .  S
C287        C295   1.385       .  A
C287        C290   1.393       .  A
C288        C299   1.392       .  A
C288        C291   1.402       .  A
C289        C303   1.385       .  A
C289        C292   1.393       .  A
C290        C293   1.371   1_554  A
C291        C297   1.376   1_554  A
C292        C300   1.371   1_554  A
C293        N294   1.352   1_556  A
C293        H306   1.082       .  S
N294        C295   1.358       .  A
N294        C386   1.426       .  S
C295        H296   1.082       .  S
C297        N298   1.349   1_556  A
C297        H307   1.081       .  S
N298        C299   1.356       .  A
N298        C394   1.430       .  S
C299        H305   1.081       .  S
C300        N301   1.353   1_556  A
C300        H302   1.083       .  S
N301        C303   1.356       .  A
N301        C420   1.425       .  S
C303        H304   1.082       .  S
C308        C310   1.536       .  S
C308        C312   1.540       .  S
C308        C311   1.526       .  S
C308        C549   1.535       .  S
C309        C313   1.540       .  S
C309        C315   1.556       .  S
C309        C314   1.549       .  S
C309        C534   1.533       .  S
C310        C318   1.373       .  A
C310        C313   1.393       .  A
C311        C322   1.370       .  A
C311        C314   1.394       .  A
C312        C326   1.375       .  A
C312        C315   1.400       .  A
C313        C316   1.385       .  A
C314        C320   1.388       .  A
C315        C323   1.392       .  A
C316        N317   1.356       .  A
C316        H329   1.082       .  S
N317        C318   1.350       .  A
N317        C466   1.425       .  S
C318        H319   1.081       .  S
C320        N321   1.356       .  A
C320        H330   1.081       .  S
N321        C322   1.350       .  A
N321        C430   1.425       .  S
C322        H328   1.083       .  S
C323        N324   1.361       .  A
C323        H325   1.082       .  S
N324        C326   1.352       .  A
N324        C441   1.434       .  S
C326        H327   1.082       .  S
C331        C333   1.530   1_554  S
C331        C335   1.542   1_554  S
C331        C334   1.528   1_554  S
C331        C501   1.536       .  S
C332        C336   1.544       .  S
C332        C338   1.558       .  S
C332        C337   1.545       .  S
C332        C486   1.534       .  S
C333        C341   1.371   1_556  A
C333        C336   1.393       .  A
C334        C345   1.370   1_556  A
C334        C337   1.394       .  A
C335        C349   1.376   1_556  A
C335        C338   1.402       .  A
C336        C339   1.387       .  A
C337        C343   1.386       .  A
C338        C346   1.392       .  A
C339        N340   1.359       .  A
C339        H352   1.082       .  S
N340        C341   1.351   1_556  A
N340        C418   1.427       .  S
C341        H342   1.082       .  S
C343        N344   1.358       .  A
C343        H353   1.082       .  S
N344        C345   1.353   1_556  A
N344        C382   1.427       .  S
C345        H351   1.083       .  S
C346        N347   1.356       .  A
C346        H348   1.081       .  S
N347        C349   1.348   1_556  A
N347        C393   1.428       .  S
C349        H350   1.081       .  S
C354        C356   1.537       .  S
C354        C358   1.548       .  S
C354        C357   1.554       .  S
C354        C510   1.530       .  S
C355        C359   1.538       .  S
C355        C361   1.528       .  S
C355        C360   1.540       .  S
C355        C477   1.536       .  S
C356        C364   1.384       .  A
C356        C359   1.394       .  A
C357        C368   1.389       .  A
C357        C360   1.400       .  A
C358        C372   1.388       .  A
C358        C361   1.394       .  A
C359        C362   1.374       .  A
C360        C366   1.375       .  A
C361        C369   1.370       .  A
C362        N363   1.350       .  A
C362        H375   1.081       .  S
N363        C364   1.355       .  A
N363        C434   1.424       .  S
C364        H365   1.082       .  S
C366        N367   1.352       .  A
C366        H376   1.082       .  S
N367        C368   1.359       .  A
N367        C442   1.431       .  S
C368        H374   1.082       .  S
C369        N370   1.352       .  A
C369        H371   1.083       .  S
N370        C372   1.356       .  A
N370        C468   1.426       .  S
C372        H373   1.081       .  S
O377       Mg379   2.145       .  S
C378        H417   1.081       .  S
C378        O391   1.235       .  S
C378        O415   1.269       .  A
Mg379       O976   2.163   1_454  S
Mg379       O423   2.289   1_554  S
Mg379       O987   2.263   1_455  S
Mg379       O958   2.289   1_455  S
O380       Mg990   2.164   1_454  S
O380       Mg405   2.146       .  S
O380        C969   1.235       .  S
O381        C412   1.270       .  A
O381       Mg405   2.295       .  S
C382        O384   1.271       .  A
C382        O396   1.274       .  A
O383        C411   1.269   1_455  A
O384       Mg416   2.266       .  S
Mg385       O391   2.142       .  S
Mg385       O387   2.298   1_556  S
C386        O424   1.271       .  A
C386        O392   1.275       .  A
O387        C394   1.275       .  A
H388        C969   1.081       .  S
C389        O404   1.267   1_545  A
O390        C413   1.268       .  A
O390       Mg947   2.289       .  S
O391       Mg405   2.164   1_556  S
O392       Mg422   2.298   1_554  S
C393        O406   1.271       .  A
C393        O398   1.278       .  A
C394        O421   1.274       .  A
Mg395       O402   2.136       .  S
Mg395       O396   2.298   1_554  S
O397        C401   1.269       .  A
O398       Mg405   2.320   1_556  S
O399        C418   1.273       .  A
O400        C420   1.273       .  A
O400       Mg416   2.292   1_554  S
C401        H956   1.081       .  S
C401        O948   1.235       .  S
O402       Mg416   2.172   1_554  S
O402        C413   1.235       .  S
O403       Mg422   2.140       .  S
O404       Mg416   2.288       .  S
Mg405       O421   2.284       .  S
O406       Mg990   2.261   1_455  S
O408       Mg947   2.163   1_556  S
O408       Mg416   2.140       .  S
O408        C979   1.235       .  S
H409        C979   1.081       .  S
H410        C413   1.081       .  S
C411        H977   1.081       .  S
C411        O976   1.235       .  S
O415       Mg990   2.293   1_455  S
C418        O423   1.273       .  A
O419        C420   1.271       .  A
O419       Mg947   2.263       .  S
Mg422       O948   2.164   1_556  S
Mg422       O974   2.261       .  S
Mg422       O983   2.293       .  S
O425       Mg427   2.147       .  S
O425      Mg1001   2.167       .  S
O425       C1028   1.236       .  S
C426        H465   1.081       .  S
C426        O439   1.235       .  S
C426        O463   1.268       .  A
Mg427       O471   2.284       .  S
O428       Mg453   2.143       .  S
O429        C460   1.269   1_455  A
O429       Mg453   2.295       .  S
C430        O432   1.270       .  A
C430        O444   1.273       .  A
O431        C459   1.269       .  A
O431      Mg1001   2.293       .  S
O432       Mg464   2.257       .  S
Mg433       O993   2.167   1_455  S
Mg433       O439   2.145       .  S
Mg433       O999   2.293   1_455  S
Mg433      O1015   2.274   1_455  S
Mg433       O435   2.307       .  S
C434        O472   1.270       .  A
C434        O440   1.275       .  A
O435        C442   1.276       .  A
C437       H1030   1.081       .  S
C437       O1019   1.235       .  S
C437        O452   1.268       .  A
O438        C461   1.268       .  A
O439       Mg453   2.168       .  S
O440       Mg470   2.298       .  S
C441        O454   1.274       .  A
C441        O446   1.279       .  A
C442        O469   1.274       .  A
Mg443       O450   2.132       .  S
Mg443      O1019   2.172       .  S
Mg443       O444   2.292       .  S
Mg443      O1013   2.293       .  S
Mg443      O1040   2.256       .  S
O445        C449   1.269   1_565  A
O445      Mg1011   2.293   1_455  S
O446       Mg453   2.329       .  S
O447        C466   1.273       .  A
O447      Mg1001   2.274       .  S
O448        C468   1.273       .  A
O448       Mg464   2.296       .  S
O450       Mg464   2.171       .  S
O450        C461   1.235       .  S
O451      Mg1011   2.172   1_455  S
O451       Mg470   2.148       .  S
O451       C1005   1.235       .  S
O452       Mg464   2.289       .  S
Mg453       O469   2.283       .  S
H455       C1028   1.081       .  S
O456       Mg464   2.132       .  S
H458        C461   1.081       .  S
C460       H1023   1.081       .  S
C460        O993   1.236       .  S
H462       C1005   1.081       .  S
C466        O471   1.272       .  A
O467        C468   1.272       .  A
O472      Mg1011   2.256   1_455  S
C473        C474   1.401       .  A
C473        C478   1.401       .  A
C473        H483   1.084       .  S
C474        C475   1.404       .  A
C474        C479   1.481       .  S
C475        C476   1.399       .  A
C475        O480   1.372       .  S
C476        C477   1.410       .  A
C476        H481   1.077       .  S
C477        C478   1.417       .  A
C478        O482   1.371       .  S
C479        C484   1.403       .  A
C479        C488   1.401       .  A
O480        H496   0.992       .  S
O482        H493   0.991       .  S
C484        C485   1.399       .  A
C484        O489   1.372       .  S
C485        C486   1.409       .  A
C485        H490   1.077       .  S
C486        C487   1.418       .  A
C487        C488   1.402       .  A
C487        O491   1.371       .  S
C488        H492   1.084       .  S
O489        H494   0.992       .  S
O491        H495   0.992       .  S
C497        C498   1.402       .  A
C497        C502   1.401       .  A
C497        H507   1.083       .  S
C498        C499   1.404       .  A
C498        C503   1.482       .  S
C499        C500   1.396       .  A
C499        O504   1.372       .  S
C500        C501   1.408       .  A
C500        H505   1.077       .  S
C501        C502   1.418       .  A
C502        O506   1.371       .  S
C503        C508   1.404       .  A
C503        C512   1.402       .  A
O504        H520   0.992       .  S
O506        H517   0.992       .  S
C508        C509   1.397       .  A
C508        O513   1.372       .  S
C509        C510   1.410       .  A
C509        H514   1.079       .  S
C510        C511   1.416       .  A
C511        C512   1.401       .  A
C511        O515   1.370       .  S
C512        H516   1.084       .  S
O513        H518   0.992       .  S
O515        H519   0.992       .  S
C521        C522   1.402       .  A
C521        C526   1.404       .  A
C521        H531   1.083       .  S
C522        C523   1.403       .  A
C522        C527   1.482       .  S
C523        C524   1.396       .  A
C523        O528   1.372       .  S
C524        C525   1.408       .  A
C524        H529   1.075       .  S
C525        C526   1.419       .  A
C526        O530   1.371       .  S
C527        C532   1.403       .  A
C527        C536   1.402       .  A
O528        H544   0.992       .  S
O530        H541   0.991       .  S
C532        C533   1.399       .  A
C532        O537   1.372       .  S
C533        C534   1.411       .  A
C533        H538   1.077       .  S
C534        C535   1.416       .  A
C535        C536   1.401       .  A
C535        O539   1.371       .  S
C536        H540   1.084       .  S
O537        H542   0.992       .  S
O539        H543   0.991       .  S
C545        C546   1.401       .  A
C545        C550   1.400       .  A
C545        H555   1.084       .  S
C546        C547   1.404       .  A
C546        C551   1.480       .  S
C547        C548   1.398       .  A
C547        O552   1.372       .  S
C548        C549   1.411       .  A
C548        H553   1.077       .  S
C549        C550   1.417       .  A
C550        O554   1.371       .  S
C551        C556   1.404       .  A
C551        C560   1.400       .  A
O552        H568   0.992       .  S
O554        H565   0.991       .  S
C556        C557   1.398       .  A
C556        O561   1.372       .  S
C557        C558   1.408       .  A
C557        H562   1.077       .  S
C558        C559   1.419       .  A
C559        C560   1.401       .  A
C559        O563   1.371       .  S
C560        H564   1.084       .  S
O561        H566   0.992       .  S
O563        H567   0.991       .  S
C569        C571   1.542       .  S
C569        C573   1.542       .  S
C569        C572   1.557       .  S
C569        C842   1.532       .  S
C570        C574   1.531   1_556  S
C570        C576   1.529   1_556  S
C570        C575   1.545   1_556  S
C570        C809   1.537       .  S
C571        C579   1.385       .  A
C571        C574   1.393       .  A
C572        C583   1.392       .  A
C572        C575   1.402       .  A
C573        C587   1.385       .  A
C573        C576   1.393       .  A
C574        C577   1.371   1_554  A
C575        C581   1.376   1_554  A
C576        C584   1.371   1_554  A
C577        N578   1.352   1_556  A
C577        H590   1.082       .  S
N578        C579   1.358       .  A
N578        C670   1.426       .  S
C579        H580   1.082       .  S
C581        N582   1.349   1_556  A
C581        H591   1.081       .  S
N582        C583   1.356       .  A
N582        C678   1.430       .  S
C583        H589   1.081       .  S
C584        N585   1.353   1_556  A
C584        H586   1.083       .  S
N585        C587   1.356       .  A
N585        C704   1.425       .  S
C587        H588   1.082       .  S
C592        C594   1.536       .  S
C592        C596   1.540       .  S
C592        C595   1.526       .  S
C592        C833   1.535       .  S
C593        C597   1.540       .  S
C593        C599   1.556       .  S
C593        C598   1.549       .  S
C593        C818   1.533       .  S
C594        C602   1.373       .  A
C594        C597   1.393       .  A
C595        C606   1.370       .  A
C595        C598   1.394       .  A
C596        C610   1.375       .  A
C596        C599   1.400       .  A
C597        C600   1.385       .  A
C598        C604   1.388       .  A
C599        C607   1.392       .  A
C600        N601   1.356       .  A
C600        H613   1.082       .  S
N601        C602   1.350       .  A
N601        C750   1.425       .  S
C602        H603   1.081       .  S
C604        N605   1.356       .  A
C604        H614   1.081       .  S
N605        C606   1.350       .  A
N605        C714   1.425       .  S
C606        H612   1.083       .  S
C607        N608   1.361       .  A
C607        H609   1.082       .  S
N608        C610   1.352       .  A
N608        C725   1.434       .  S
C610        H611   1.082       .  S
C615        C617   1.530   1_554  S
C615        C619   1.542   1_554  S
C615        C618   1.528   1_554  S
C615        C785   1.536       .  S
C616        C620   1.544       .  S
C616        C622   1.558       .  S
C616        C621   1.545       .  S
C616        C770   1.534       .  S
C617        C625   1.371   1_556  A
C617        C620   1.393       .  A
C618        C629   1.370   1_556  A
C618        C621   1.394       .  A
C619        C633   1.376   1_556  A
C619        C622   1.402       .  A
C620        C623   1.387       .  A
C621        C627   1.386       .  A
C622        C630   1.392       .  A
C623        N624   1.359       .  A
C623        H636   1.082       .  S
N624        C625   1.351   1_556  A
N624        C702   1.427       .  S
C625        H626   1.082       .  S
C627        N628   1.358       .  A
C627        H637   1.082       .  S
N628        C629   1.353   1_556  A
N628        C666   1.427       .  S
C629        H635   1.083       .  S
C630        N631   1.356       .  A
C630        H632   1.081       .  S
N631        C633   1.348   1_556  A
N631        C677   1.428       .  S
C633        H634   1.081       .  S
C638        C640   1.537       .  S
C638        C642   1.548       .  S
C638        C641   1.554       .  S
C638        C794   1.530       .  S
C639        C643   1.538       .  S
C639        C645   1.528       .  S
C639        C644   1.540       .  S
C639        C761   1.536       .  S
C640        C648   1.384       .  A
C640        C643   1.394       .  A
C641        C652   1.389       .  A
C641        C644   1.400       .  A
C642        C656   1.388       .  A
C642        C645   1.394       .  A
C643        C646   1.374       .  A
C644        C650   1.375       .  A
C645        C653   1.370       .  A
C646        N647   1.350       .  A
C646        H659   1.081       .  S
N647        C648   1.355       .  A
N647        C718   1.424       .  S
C648        H649   1.082       .  S
C650        N651   1.352       .  A
C650        H660   1.082       .  S
N651        C652   1.359       .  A
N651        C726   1.431       .  S
C652        H658   1.082       .  S
C653        N654   1.352       .  A
C653        H655   1.083       .  S
N654        C656   1.356       .  A
N654        C752   1.426       .  S
C656        H657   1.081       .  S
O661       Mg663   2.145       .  S
O661       Mg953   2.165   1_554  S
O661        C980   1.236       .  S
C662        H701   1.081       .  S
C662        O675   1.235       .  S
C662        O699   1.269       .  A
Mg663       O707   2.289   1_554  S
O664       Mg689   2.146       .  S
O665        C696   1.270   1_545  A
O665       Mg689   2.295       .  S
C666        O668   1.271       .  A
C666        O680   1.274       .  A
O667        C695   1.269       .  A
O667       Mg953   2.292       .  S
O668       Mg700   2.266       .  S
Mg669       O945   2.165   1_546  S
Mg669       O675   2.142       .  S
Mg669       O951   2.292   1_545  S
Mg669       O967   2.277   1_545  S
Mg669       O671   2.298   1_556  S
C670        O708   1.271       .  A
C670        O676   1.275       .  A
O671        C678   1.275       .  A
C673        H982   1.081       .  S
C673        O971   1.234       .  S
C673        O688   1.267       .  A
O674        C697   1.268       .  A
O675       Mg689   2.164   1_556  S
O676       Mg706   2.298   1_554  S
C677        O690   1.272       .  A
C677        O682   1.278       .  A
C678        O705   1.274       .  A
Mg679       O686   2.136       .  S
Mg679       O971   2.168   1_554  S
Mg679       O680   2.298   1_554  S
Mg679       O965   2.295       .  S
Mg679       O992   2.266       .  S
O681        C685   1.269   1_655  A
O681       Mg963   2.295   1_545  S
O682       Mg689   2.320   1_556  S
O683        C702   1.273       .  A
O683       Mg953   2.277       .  S
O684        C704   1.273       .  A
O684       Mg700   2.292   1_554  S
O686       Mg700   2.172   1_554  S
O686        C697   1.235       .  S
O687       Mg963   2.168   1_546  S
O687       Mg706   2.140       .  S
O687        C957   1.234       .  S
O688       Mg700   2.288       .  S
Mg689       O705   2.284       .  S
H691        C980   1.081       .  S
O692       Mg700   2.140       .  S
H694        C697   1.081       .  S
C696        H975   1.081       .  S
C696        O945   1.236       .  S
H698        C957   1.081       .  S
C702        O707   1.273       .  A
O703        C704   1.271       .  A
O708       Mg963   2.266   1_545  S
O709       Mg711   2.147       .  S
C710        H749   1.081       .  S
C710        O723   1.235       .  S
C710        O747   1.268       .  A
Mg711      O1024   2.158   1_545  S
Mg711       O755   2.284       .  S
Mg711      O1035   2.266   1_545  S
Mg711      O1006   2.288   1_545  S
O712      Mg1038   2.162   1_545  S
O712       Mg737   2.143       .  S
O712       C1017   1.236       .  S
O713        C744   1.269       .  A
O713       Mg737   2.295       .  S
C714        O716   1.270       .  A
C714        O728   1.273       .  A
O715        C743   1.269   1_545  A
O716       Mg748   2.257       .  S
Mg717       O723   2.145       .  S
Mg717       O719   2.307       .  S
C718        O756   1.270       .  A
C718        O724   1.275       .  A
O719        C726   1.276       .  A
H720       C1017   1.081       .  S
C721        O736   1.268   1_455  A
O722        C745   1.268       .  A
O722       Mg995   2.288       .  S
O723       Mg737   2.168       .  S
O724       Mg754   2.298       .  S
C725        O738   1.274       .  A
C725        O730   1.279       .  A
C726        O753   1.274       .  A
Mg727       O734   2.132       .  S
Mg727       O728   2.292       .  S
O729        C733   1.269       .  A
O730       Mg737   2.329       .  S
O731        C750   1.273       .  A
O732        C752   1.273       .  A
O732       Mg748   2.296       .  S
C733       H1004   1.081       .  S
C733        O996   1.236       .  S
O734       Mg748   2.171       .  S
O734        C745   1.235       .  S
O735       Mg754   2.148       .  S
O736       Mg748   2.289       .  S
Mg737       O753   2.283       .  S
O738      Mg1038   2.283   1_545  S
O740       Mg995   2.158       .  S
O740       Mg748   2.132       .  S
O740       C1027   1.235       .  S
H741       C1027   1.081       .  S
H742        C745   1.081       .  S
C743       H1025   1.081       .  S
C743       O1024   1.235       .  S
O747      Mg1038   2.291   1_545  S
C750        O755   1.272       .  A
O751        C752   1.272       .  A
O751       Mg995   2.266       .  S
Mg754       O996   2.162       .  S
Mg754      O1022   2.283       .  S
Mg754      O1031   2.291       .  S
C757        C758   1.401       .  A
C757        C762   1.401       .  A
C757        H767   1.084       .  S
C758        C759   1.404       .  A
C758        C763   1.481       .  S
C759        C760   1.399       .  A
C759        O764   1.372       .  S
C760        C761   1.410       .  A
C760        H765   1.077       .  S
C761        C762   1.417       .  A
C762        O766   1.371       .  S
C763        C768   1.403       .  A
C763        C772   1.401       .  A
O764        H780   0.992       .  S
O766        H777   0.991       .  S
C768        C769   1.399       .  A
C768        O773   1.372       .  S
C769        C770   1.409       .  A
C769        H774   1.077       .  S
C770        C771   1.418       .  A
C771        C772   1.402       .  A
C771        O775   1.371       .  S
C772        H776   1.084       .  S
O773        H778   0.992       .  S
O775        H779   0.992       .  S
C781        C782   1.402       .  A
C781        C786   1.401       .  A
C781        H791   1.083       .  S
C782        C783   1.404       .  A
C782        C787   1.482       .  S
C783        C784   1.396       .  A
C783        O788   1.372       .  S
C784        C785   1.408       .  A
C784        H789   1.077       .  S
C785        C786   1.418       .  A
C786        O790   1.371       .  S
C787        C792   1.404       .  A
C787        C796   1.402       .  A
O788        H804   0.992       .  S
O790        H801   0.992       .  S
C792        C793   1.397       .  A
C792        O797   1.372       .  S
C793        C794   1.410       .  A
C793        H798   1.079       .  S
C794        C795   1.416       .  A
C795        C796   1.401       .  A
C795        O799   1.370       .  S
C796        H800   1.084       .  S
O797        H802   0.992       .  S
O799        H803   0.992       .  S
C805        C806   1.402       .  A
C805        C810   1.404       .  A
C805        H815   1.083       .  S
C806        C807   1.403       .  A
C806        C811   1.482       .  S
C807        C808   1.396       .  A
C807        O812   1.372       .  S
C808        C809   1.408       .  A
C808        H813   1.075       .  S
C809        C810   1.419       .  A
C810        O814   1.371       .  S
C811        C816   1.403       .  A
C811        C820   1.402       .  A
O812        H828   0.992       .  S
O814        H825   0.991       .  S
C816        C817   1.399       .  A
C816        O821   1.372       .  S
C817        C818   1.411       .  A
C817        H822   1.077       .  S
C818        C819   1.416       .  A
C819        C820   1.401       .  A
C819        O823   1.371       .  S
C820        H824   1.084       .  S
O821        H826   0.992       .  S
O823        H827   0.991       .  S
C829        C830   1.401       .  A
C829        C834   1.400       .  A
C829        H839   1.084       .  S
C830        C831   1.404       .  A
C830        C835   1.480       .  S
C831        C832   1.398       .  A
C831        O836   1.372       .  S
C832        C833   1.411       .  A
C832        H837   1.077       .  S
C833        C834   1.417       .  A
C834        O838   1.371       .  S
C835        C840   1.404       .  A
C835        C844   1.400       .  A
O836        H852   0.992       .  S
O838        H849   0.991       .  S
C840        C841   1.398       .  A
C840        O845   1.372       .  S
C841        C842   1.408       .  A
C841        H846   1.077       .  S
C842        C843   1.419       .  A
C843        C844   1.401       .  A
C843        O847   1.371       .  S
C844        H848   1.084       .  S
O845        H850   0.992       .  S
O847        H851   0.991       .  S
C853        C855   1.542       .  S
C853        C857   1.542       .  S
C853        C856   1.557       .  S
C853       C1126   1.532       .  S
C854        C858   1.531   1_556  S
C854        C860   1.529   1_556  S
C854        C859   1.545   1_556  S
C854       C1093   1.537       .  S
C855        C863   1.385       .  A
C855        C858   1.393       .  A
C856        C867   1.392       .  A
C856        C859   1.402       .  A
C857        C871   1.385       .  A
C857        C860   1.393       .  A
C858        C861   1.371   1_554  A
C859        C865   1.376   1_554  A
C860        C868   1.371   1_554  A
C861        N862   1.352   1_556  A
C861        H874   1.082       .  S
N862        C863   1.358       .  A
N862        C954   1.426       .  S
C863        H864   1.082       .  S
C865        N866   1.349   1_556  A
C865        H875   1.081       .  S
N866        C867   1.356       .  A
N866        C962   1.430       .  S
C867        H873   1.081       .  S
C868        N869   1.353   1_556  A
C868        H870   1.083       .  S
N869        C871   1.356       .  A
N869        C988   1.425       .  S
C871        H872   1.082       .  S
C876        C878   1.536       .  S
C876        C880   1.540       .  S
C876        C879   1.526       .  S
C876       C1117   1.535       .  S
C877        C881   1.540       .  S
C877        C883   1.556       .  S
C877        C882   1.549       .  S
C877       C1102   1.533       .  S
C878        C886   1.373       .  A
C878        C881   1.393       .  A
C879        C890   1.370       .  A
C879        C882   1.394       .  A
C880        C894   1.375       .  A
C880        C883   1.400       .  A
C881        C884   1.385       .  A
C882        C888   1.388       .  A
C883        C891   1.392       .  A
C884        N885   1.356       .  A
C884        H897   1.082       .  S
N885        C886   1.350       .  A
N885       C1034   1.425       .  S
C886        H887   1.081       .  S
C888        N889   1.356       .  A
C888        H898   1.081       .  S
N889        C890   1.350       .  A
N889        C998   1.425       .  S
C890        H896   1.083       .  S
C891        N892   1.361       .  A
C891        H893   1.082       .  S
N892        C894   1.352       .  A
N892       C1009   1.434       .  S
C894        H895   1.082       .  S
C899        C901   1.530   1_554  S
C899        C903   1.542   1_554  S
C899        C902   1.528   1_554  S
C899       C1069   1.536       .  S
C900        C904   1.544       .  S
C900        C906   1.558       .  S
C900        C905   1.545       .  S
C900       C1054   1.534       .  S
C901        C909   1.371   1_556  A
C901        C904   1.393       .  A
C902        C913   1.370   1_556  A
C902        C905   1.394       .  A
C903        C917   1.376   1_556  A
C903        C906   1.402       .  A
C904        C907   1.387       .  A
C905        C911   1.386       .  A
C906        C914   1.392       .  A
C907        N908   1.359       .  A
C907        H920   1.082       .  S
N908        C909   1.351   1_556  A
N908        C986   1.427       .  S
C909        H910   1.082       .  S
C911        N912   1.358       .  A
C911        H921   1.082       .  S
N912        C913   1.353   1_556  A
N912        C950   1.427       .  S
C913        H919   1.083       .  S
C914        N915   1.356       .  A
C914        H916   1.081       .  S
N915        C917   1.348   1_556  A
N915        C961   1.428       .  S
C917        H918   1.081       .  S
C922        C924   1.537       .  S
C922        C926   1.548       .  S
C922        C925   1.554       .  S
C922       C1078   1.530       .  S
C923        C927   1.538       .  S
C923        C929   1.528       .  S
C923        C928   1.540       .  S
C923       C1045   1.536       .  S
C924        C932   1.384       .  A
C924        C927   1.394       .  A
C925        C936   1.389       .  A
C925        C928   1.400       .  A
C926        C940   1.388       .  A
C926        C929   1.394       .  A
C927        C930   1.374       .  A
C928        C934   1.375       .  A
C929        C937   1.370       .  A
C930        N931   1.350       .  A
C930        H943   1.081       .  S
N931        C932   1.355       .  A
N931       C1002   1.424       .  S
C932        H933   1.082       .  S
C934        N935   1.352       .  A
C934        H944   1.082       .  S
N935        C936   1.359       .  A
N935       C1010   1.431       .  S
C936        H942   1.082       .  S
C937        N938   1.352       .  A
C937        H939   1.083       .  S
N938        C940   1.356       .  A
N938       C1036   1.426       .  S
C940        H941   1.081       .  S
O945       Mg947   2.145       .  S
C946        H985   1.081       .  S
C946        O959   1.235       .  S
C946        O983   1.269       .  A
Mg947       O991   2.289   1_554  S
O948       Mg973   2.146       .  S
O949        C980   1.270       .  A
O949       Mg973   2.295       .  S
C950        O952   1.271       .  A
C950        O964   1.274       .  A
O951        C979   1.269       .  A
O952       Mg984   2.266       .  S
Mg953       O959   2.142       .  S
Mg953       O955   2.298   1_556  S
C954        O992   1.271       .  A
C954        O960   1.275       .  A
O955        C962   1.275       .  A
C957        O972   1.267   1_545  A
O958        C981   1.268       .  A
O959       Mg973   2.164   1_556  S
O960       Mg990   2.298   1_554  S
C961        O974   1.272       .  A
C961        O966   1.278       .  A
C962        O989   1.274       .  A
Mg963       O970   2.136       .  S
Mg963       O964   2.298   1_554  S
O965        C969   1.269   1_655  A
O966       Mg973   2.320   1_556  S
O967        C986   1.273       .  A
O968        C988   1.273       .  A
O968       Mg984   2.292   1_554  S
O970       Mg984   2.172   1_554  S
O970        C981   1.235       .  S
O971       Mg990   2.140       .  S
O972       Mg984   2.288       .  S
Mg973       O989   2.284       .  S
O976       Mg984   2.140       .  S
H978        C981   1.081       .  S
C986        O991   1.273       .  A
O987        C988   1.271       .  A
O993       Mg995   2.147       .  S
C994       H1033   1.081       .  S
C994       O1007   1.235       .  S
C994       O1031   1.268       .  A
Mg995      O1039   2.284       .  S
O996      Mg1021   2.143       .  S
O997       C1028   1.269       .  A
O997      Mg1021   2.295       .  S
C998       O1000   1.270       .  A
C998       O1012   1.273       .  A
O999       C1027   1.269       .  A
O1000     Mg1032   2.257       .  S
Mg1001     O1007   2.145       .  S
Mg1001     O1003   2.307       .  S
C1002      O1040   1.270       .  A
C1002      O1008   1.275       .  A
O1003      C1010   1.276       .  A
C1005      O1020   1.268   1_455  A
O1006      C1029   1.268       .  A
O1007     Mg1021   2.168       .  S
O1008     Mg1038   2.298       .  S
C1009      O1022   1.274       .  A
C1009      O1014   1.279       .  A
C1010      O1037   1.274       .  A
Mg1011     O1018   2.132       .  S
Mg1011     O1012   2.292       .  S
O1013      C1017   1.269   1_565  A
O1014     Mg1021   2.329       .  S
O1015      C1034   1.273       .  A
O1016      C1036   1.273       .  A
O1016     Mg1032   2.296       .  S
O1018     Mg1032   2.171       .  S
O1018      C1029   1.235       .  S
O1019     Mg1038   2.148       .  S
O1020     Mg1032   2.289       .  S
Mg1021     O1037   2.283       .  S
O1024     Mg1032   2.132       .  S
H1026      C1029   1.081       .  S
C1034      O1039   1.272       .  A
O1035      C1036   1.272       .  A
C1041      C1042   1.401       .  A
C1041      C1046   1.401       .  A
C1041      H1051   1.084       .  S
C1042      C1043   1.404       .  A
C1042      C1047   1.481       .  S
C1043      C1044   1.399       .  A
C1043      O1048   1.372       .  S
C1044      C1045   1.410       .  A
C1044      H1049   1.077       .  S
C1045      C1046   1.417       .  A
C1046      O1050   1.371       .  S
C1047      C1052   1.403       .  A
C1047      C1056   1.401       .  A
O1048      H1064   0.992       .  S
O1050      H1061   0.991       .  S
C1052      C1053   1.399       .  A
C1052      O1057   1.372       .  S
C1053      C1054   1.409       .  A
C1053      H1058   1.077       .  S
C1054      C1055   1.418       .  A
C1055      C1056   1.402       .  A
C1055      O1059   1.371       .  S
C1056      H1060   1.084       .  S
O1057      H1062   0.992       .  S
O1059      H1063   0.992       .  S
C1065      C1066   1.402       .  A
C1065      C1070   1.401       .  A
C1065      H1075   1.083       .  S
C1066      C1067   1.404       .  A
C1066      C1071   1.482       .  S
C1067      C1068   1.396       .  A
C1067      O1072   1.372       .  S
C1068      C1069   1.408       .  A
C1068      H1073   1.077       .  S
C1069      C1070   1.418       .  A
C1070      O1074   1.371       .  S
C1071      C1076   1.404       .  A
C1071      C1080   1.402       .  A
O1072      H1088   0.992       .  S
O1074      H1085   0.992       .  S
C1076      C1077   1.397       .  A
C1076      O1081   1.372       .  S
C1077      C1078   1.410       .  A
C1077      H1082   1.079       .  S
C1078      C1079   1.416       .  A
C1079      C1080   1.401       .  A
C1079      O1083   1.370       .  S
C1080      H1084   1.084       .  S
O1081      H1086   0.992       .  S
O1083      H1087   0.992       .  S
C1089      C1090   1.402       .  A
C1089      C1094   1.404       .  A
C1089      H1099   1.083       .  S
C1090      C1091   1.403       .  A
C1090      C1095   1.482       .  S
C1091      C1092   1.396       .  A
C1091      O1096   1.372       .  S
C1092      C1093   1.408       .  A
C1092      H1097   1.075       .  S
C1093      C1094   1.419       .  A
C1094      O1098   1.371       .  S
C1095      C1100   1.403       .  A
C1095      C1104   1.402       .  A
O1096      H1112   0.992       .  S
O1098      H1109   0.991       .  S
C1100      C1101   1.399       .  A
C1100      O1105   1.372       .  S
C1101      C1102   1.411       .  A
C1101      H1106   1.077       .  S
C1102      C1103   1.416       .  A
C1103      C1104   1.401       .  A
C1103      O1107   1.371       .  S
C1104      H1108   1.084       .  S
O1105      H1110   0.992       .  S
O1107      H1111   0.991       .  S
C1113      C1114   1.401       .  A
C1113      C1118   1.400       .  A
C1113      H1123   1.084       .  S
C1114      C1115   1.404       .  A
C1114      C1119   1.480       .  S
C1115      C1116   1.398       .  A
C1115      O1120   1.372       .  S
C1116      C1117   1.411       .  A
C1116      H1121   1.077       .  S
C1117      C1118   1.417       .  A
C1118      O1122   1.371       .  S
C1119      C1124   1.404       .  A
C1119      C1128   1.400       .  A
O1120      H1136   0.992       .  S
O1122      H1133   0.991       .  S
C1124      C1125   1.398       .  A
C1124      O1129   1.372       .  S
C1125      C1126   1.408       .  A
C1125      H1130   1.077       .  S
C1126      C1127   1.419       .  A
C1127      C1128   1.401       .  A
C1127      O1131   1.371       .  S
C1128      H1132   1.084       .  S
O1129      H1134   0.992       .  S
O1131      H1135   0.991       .  S
