geometry optimzed in LAMMPS
_audit_creation_date              2020-12-01 
_audit_creation_method            'lammps2cif' 
_symmetry_space_group_name_H-M    'P1' 
_symmetry_Int_Tables_number       1 
_symmetry_cell_setting            triclinic 
loop_ 
_symmetry_equiv_pos_as_xyz 
  x,y,z 
_cell_length_a                    39.89159241 
_cell_length_b                    39.71202157179185 
_cell_length_c                    39.18643859093116 
_cell_angle_alpha                 90.50130430917108 
_cell_angle_beta                  90.39155142230604 
_cell_angle_gamma                 90.30977422198514 
loop_ 
_atom_site_label 
_atom_site_type_symbol 
_atom_site_fract_x 
_atom_site_fract_y 
_atom_site_fract_z 
_atom_site_charge 
N1          N  0.82450086  0.21816149  0.02190903    -0.03100
C2          C  0.81386757  0.25096577  0.02756926    -0.00500
C3          C  0.83511891  0.26647978  0.05095157    -0.23400
C4          C  0.85642473  0.24255934  0.06275179    -0.23600
C5          C  0.84643264  0.21199356  0.04829853    -0.00600
H6          H  0.83349248  0.29176172  0.06123869     0.13200
H7          H  0.87246679  0.24622920  0.08488953     0.13200
N8          N  0.60097840  0.42651235  0.97856897    -0.03100
C9          C  0.60520314  0.39341313  0.98814873    -0.00500
C10         C  0.58059119  0.38502259  0.01110368    -0.23400
C11         C  0.56451985  0.41442615  0.01967754    -0.23600
C12         C  0.58086600  0.44063567  0.00313619    -0.00600
H13         H  0.57783553  0.36129285  0.02413390     0.13200
H14         H  0.54853462  0.41687183  0.04177328     0.13200
N15         N  0.82766143  0.06857195  0.19419619    -0.03100
C16         C  0.81827412  0.07592927  0.22773502    -0.00500
C17         C  0.83841879  0.10146690  0.24043153    -0.23400
C18         C  0.85713404  0.11303104  0.21397396    -0.23600
C19         C  0.84715770  0.09549840  0.18466039    -0.00600
H20         H  0.83755598  0.11263917  0.26568430     0.13200
H21         H  0.87160571  0.13616594  0.21515726     0.13200
N22         N  0.60636975  0.04030161  0.41786757    -0.03100
C23         C  0.63774791  0.02836637  0.40769248    -0.00500
C24         C  0.64740678  0.00292167  0.42922942    -0.23400
C25         C  0.62042541  0.99529558  0.44896893    -0.23600
C26         C  0.59360146  0.01450188  0.43740737    -0.00600
H27         H  0.67089999  0.98943646  0.42887927     0.13200
H28         H  0.61902043  0.97277760  0.46429209     0.13200
O29         O  0.82715822  0.44952616  0.44485718    -0.74000
O30         O  0.79712866  0.46143453  0.35448037    -0.74100
O31         O  0.78172381  0.42066168  0.40483701    -0.74100
O32         O  0.84373315  0.49382876  0.38810452    -0.74200
O33         O  0.88245703  0.45623578  0.37546323    -0.74100
O34         O  0.81954483  0.38500901  0.38365059    -0.74100
O35         O  0.83620737  0.42637972  0.33464217    -0.74000
O36         O  0.86170730  0.40905268  0.42833899    -0.74100
Ni37       Ni  0.81169408  0.45817999  0.39936788     1.25400
Ni38       Ni  0.85228348  0.41836999  0.38022127     1.25400
C39         C  0.84232313  0.42165830  0.45125336     0.88200
C40         C  0.80955650  0.44379761  0.33047498     0.88100
C41         C  0.79042248  0.39102958  0.39526426     0.88100
C42         C  0.86967831  0.48556990  0.37061731     0.88300
O43         O  0.57819482  0.47242673  0.05582335    -0.74000
O44         O  0.63558626  0.47409751  0.13397367    -0.74100
O45         O  0.59966626  0.52155607  0.10601481    -0.74100
O46         O  0.61612037  0.42740926  0.08896899    -0.74200
O47         O  0.65965114  0.44186515  0.05647374    -0.74100
O48         O  0.64134673  0.53460039  0.07102395    -0.74100
O49         O  0.67857811  0.48879458  0.10090181    -0.74000
O50         O  0.62121022  0.48328620  0.02204966    -0.74100
Ni51       Ni  0.60518553  0.47383391  0.09688738     1.25400
Ni52       Ni  0.65122696  0.48825098  0.06094331     1.25400
C53         C  0.59267699  0.46898070  0.02671062     0.88200
C54         C  0.66668654  0.48069540  0.12992743     0.88100
C55         C  0.62249429  0.54228548  0.09644870     0.88100
C56         C  0.64289822  0.41988241  0.07287459     0.88300
O57         O  0.82260926  0.10948271  0.12762947    -0.74000
O58         O  0.76718018  0.18248726  0.09348615    -0.74100
O59         O  0.82360766  0.15792651  0.06889778    -0.74100
O60         O  0.76654286  0.13901008  0.14526505    -0.74200
O61         O  0.79743614  0.17549111  0.17605274    -0.74100
O62         O  0.85586980  0.18934100  0.10264691    -0.74100
O63         O  0.79940797  0.21759844  0.12422449    -0.74000
O64         O  0.85364562  0.14695381  0.15593883    -0.74100
Ni65       Ni  0.79461173  0.14518612  0.10700581     1.25400
Ni66       Ni  0.82781276  0.18341778  0.14054335     1.25400
C67         C  0.84225005  0.11699991  0.15310133     0.88200
C68         C  0.77411984  0.21212812  0.10470055     0.88100
C69         C  0.84371013  0.18323124  0.07307562     0.88100
C70         C  0.77290937  0.15486516  0.17304415     0.88300
O71         O  0.63479555  0.13675479  0.49897902    -0.74000
O72         O  0.66624868  0.11469536  0.41127452    -0.74100
O73         O  0.66813896  0.16789683  0.45133763    -0.74100
O74         O  0.63283481  0.07950123  0.45530350    -0.74200
O75         O  0.58572248  0.09639932  0.43057628    -0.74100
O76         O  0.62093368  0.18700431  0.42749565    -0.74100
O77         O  0.61895277  0.13314695  0.38707539    -0.74000
O78         O  0.58804471  0.15756449  0.47681428    -0.74100
Ni79       Ni  0.65164896  0.12372291  0.45558757     1.25400
Ni80       Ni  0.60071671  0.14363671  0.43044735     1.25400
C81         C  0.61074806  0.15802244  0.50051662     0.88200
C82         C  0.64901884  0.12245586  0.38500740     0.88100
C83         C  0.65153048  0.19104811  0.43652595     0.88100
C84         C  0.60758514  0.07303961  0.43580668     0.88300
N85         N  0.83481198  0.40401113  0.48334350    -0.03100
C86         C  0.80047940  0.39857931  0.48894323    -0.00500
C87         C  0.78868225  0.42421619  0.50972271    -0.23400
C88         C  0.81602095  0.44090300  0.52260191    -0.23600
C89         C  0.84420600  0.42461508  0.51006532    -0.00600
H90         H  0.76356412  0.42695788  0.51951538     0.13200
H91         H  0.81502569  0.45764480  0.54452994     0.13200
N92         N  0.61200584  0.18388933  0.52760330    -0.03100
C93         C  0.64444089  0.19632427  0.53408122    -0.00500
C94         C  0.65652626  0.18185788  0.56351137    -0.23400
C95         C  0.63004673  0.16616479  0.57887870    -0.23600
C96         C  0.60183245  0.17138207  0.55866717    -0.00600
H97         H  0.68108830  0.18571276  0.57476178     0.13200
H98         H  0.63037125  0.15792692  0.60514243     0.13200
O99         O  0.90984074  0.97443649  0.19880154    -0.74000
O100        O  0.82695301  0.98231417  0.24335728    -0.74100
O101        O  0.86834849  0.93308260  0.22935855    -0.74100
O102        O  0.86456327  0.02651615  0.21297336    -0.74200
O103        O  0.83797673  0.01705591  0.16373101    -0.74100
O104        O  0.84136560  0.92254349  0.18006717    -0.74100
O105        O  0.79941622  0.97240013  0.19447476    -0.74000
O106        O  0.88517266  0.96064566  0.14970516    -0.74100
Ni107      Ni  0.86879264  0.97986242  0.22240427     1.25400
Ni108      Ni  0.84046786  0.96853853  0.16948587     1.25400
C109        C  0.91081962  0.95883976  0.16997625     0.88200
C110        C  0.79978626  0.97692898  0.22696425     0.88100
C111        C  0.85417875  0.91292208  0.20812356     0.88100
C112        C  0.84434837  0.03637345  0.18953919     0.88300
O113        O  0.54233345  0.99974185  0.40396062    -0.74000
O114        O  0.52017392  0.92390177  0.34543520    -0.74100
O115        O  0.48469071  0.95243315  0.39442321    -0.74100
O116        O  0.57082553  0.96628211  0.35401392    -0.74200
O117        O  0.59425039  0.93201366  0.39221211    -0.74100
O118        O  0.50847133  0.91941863  0.43283656    -0.74100
O119        O  0.54302840  0.88908434  0.38347766    -0.74000
O120        O  0.56152288  0.96390900  0.44230804    -0.74100
Ni121      Ni  0.52803135  0.96244999  0.37378641     1.25400
Ni122      Ni  0.55234357  0.92519400  0.41450542     1.25400
C123        C  0.56262274  0.99320168  0.42880774     0.88200
C124        C  0.52991256  0.89451979  0.35420269     0.88100
C125        C  0.48275220  0.92721181  0.41479993     0.88100
C126        C  0.59596095  0.94986442  0.36524739     0.88300
O127        O  0.94223604  0.62748965  0.29757119    -0.74000
O128        O  0.85312433  0.60979142  0.26476453    -0.74100
O129        O  0.89504668  0.66113172  0.26622578    -0.74100
O130        O  0.89672024  0.57056329  0.29636645    -0.74200
O131        O  0.87583051  0.58543378  0.34663217    -0.74100
O132        O  0.87453518  0.67670758  0.31682032    -0.74100
O133        O  0.83252817  0.62520402  0.31531144    -0.74000
O134        O  0.92262259  0.64446185  0.34760514    -0.74100
Ni135      Ni  0.89811208  0.61602536  0.27991113     1.25400
Ni136      Ni  0.87632639  0.63282279  0.33404913     1.25400
C137        C  0.94535896  0.64647256  0.32433986     0.88200
C138        C  0.82834252  0.61777203  0.28367752     0.88100
C139        C  0.88271052  0.68329070  0.28615410     0.88100
C140        C  0.87947617  0.56309804  0.32295921     0.88300
O141        O  0.51377085  0.68218973  0.11028897    -0.74000
O142        O  0.60454718  0.68324171  0.14684457    -0.74100
O143        O  0.57552834  0.64633887  0.09726775    -0.74100
O144        O  0.54678510  0.71600288  0.15746001    -0.74200
O145        O  0.52785788  0.67760275  0.19385957    -0.74100
O146        O  0.56754887  0.60827063  0.13763169    -0.74100
O147        O  0.58780335  0.64861258  0.18801047    -0.74000
O148        O  0.50361051  0.63839704  0.14334661    -0.74100
Ni149      Ni  0.56051383  0.68297522  0.12590752     1.25400
Ni150      Ni  0.54577225  0.64147915  0.16664379     1.25400
C151        C  0.49259411  0.66336584  0.12587145     0.88200
C152        C  0.61023343  0.66722125  0.17462905     0.88100
C153        C  0.58321271  0.61799476  0.11091627     0.88100
C154        C  0.53282667  0.70841037  0.18559269     0.88300
N155        N  0.86159713  0.53066749  0.32377010    -0.03100
C156        C  0.85091862  0.51914499  0.29183489    -0.00500
C157        C  0.86982497  0.49158440  0.28274065    -0.23400
C158        C  0.88802772  0.48260243  0.31102897    -0.23600
C159        C  0.87897088  0.50399439  0.33770090    -0.00600
H160        H  0.86847396  0.47765617  0.25894294     0.13200
H161        H  0.90072330  0.45869141  0.31334086     0.13200
N162        N  0.62910891  0.57335971  0.11543761    -0.03100
C163        C  0.66243709  0.58117525  0.12293244    -0.00500
C164        C  0.67096802  0.61086182  0.10723442    -0.23400
C165        C  0.64217533  0.62381623  0.09345928    -0.23600
C166        C  0.61611444  0.60197726  0.10117518    -0.00600
H167        H  0.69497792  0.62351084  0.10861764     0.13200
H168        H  0.63982149  0.64930797  0.08419537     0.13200
N169        N  0.94036008  0.93752335  0.16300421    -0.03100
C170        C  0.94989613  0.92024650  0.19219479    -0.00500
C171        C  0.97336237  0.93903666  0.20964374    -0.23400
C172        C  0.98380928  0.96382336  0.18789945    -0.23600
C173        C  0.96803456  0.95739937  0.15676294    -0.00600
H174        H  0.98371707  0.93282405  0.23402759     0.13200
H175        H  0.00601722  0.97907966  0.19197417     0.13200
N176        N  0.97225821  0.67261365  0.32556294    -0.03100
C177        C  0.97846290  0.68696836  0.29398629    -0.00500
C178        C  0.00656444  0.67203214  0.28011842    -0.23400
C179        C  0.02102961  0.65353088  0.30553374    -0.23600
C180        C  0.00356087  0.66120489  0.33519635    -0.00600
H181        H  0.01866598  0.67824598  0.25635940     0.13200
H182        H  0.04666304  0.64479169  0.30418816     0.13200
N183        N  0.08006280  0.92128732  0.02282588    -0.03100
C184        C  0.08929407  0.88785287  0.01908222    -0.00500
C185        C  0.06929515  0.87326593  0.99425225    -0.23400
C186        C  0.05250051  0.89894200  0.97824404    -0.23600
C187        C  0.06279710  0.92898184  0.99356330    -0.00600
H188        H  0.07042489  0.84737113  0.98558034     0.13200
H189        H  0.04041009  0.89627392  0.95354017     0.13200
N190        N  0.31399165  0.71587625  0.01980275    -0.03100
C191        C  0.28128332  0.72120194  0.03096447    -0.00500
C192        C  0.26525319  0.69067914  0.03508393    -0.23400
C193        C  0.28600459  0.66653266  0.02230980    -0.23600
C194        C  0.31346596  0.68302445  0.00832963    -0.00600
H195        H  0.23949356  0.68670367  0.04264288     0.13200
H196        H  0.27791846  0.64096610  0.01681338     0.13200
O197        O  0.32812069  0.88805453  0.44019605    -0.74000
O198        O  0.33068558  0.90192997  0.34471092    -0.74100
O199        O  0.37631991  0.88392068  0.39003261    -0.74100
O200        O  0.28405436  0.90424626  0.39259102    -0.74200
O201        O  0.29444334  0.95909031  0.40019356    -0.74100
O202        O  0.39014846  0.93752314  0.39959043    -0.74100
O203        O  0.34414578  0.95611457  0.35262892    -0.74000
O204        O  0.33906343  0.94218688  0.45034278    -0.74100
Ni205      Ni  0.32962906  0.89278940  0.39188848     1.25400
Ni206      Ni  0.34266397  0.95081203  0.40141632     1.25400
C207        C  0.33024203  0.91301403  0.46125712     0.88200
C208        C  0.33746035  0.93109215  0.33290534     0.88100
C209        C  0.39863748  0.90715943  0.39130134     0.88100
C210        C  0.27380845  0.93445879  0.39527556     0.88300
O211        O  0.05797282  0.67697850  0.35817303    -0.74000
O212        O  0.11492783  0.75148592  0.38268369    -0.74100
O213        O  0.10259338  0.69196097  0.41288768    -0.74100
O214        O  0.07385194  0.73776117  0.33125440    -0.74200
O215        O  0.03273131  0.76279923  0.35990924    -0.74100
O216        O  0.05813721  0.71289336  0.43948001    -0.74100
O217        O  0.07345211  0.77443150  0.41264424    -0.74000
O218        O  0.01418678  0.70162916  0.38229823    -0.74100
Ni219      Ni  0.08856590  0.71303017  0.37052458     1.25400
Ni220      Ni  0.04296980  0.73803893  0.40007811     1.25400
C221        C  0.02592098  0.67975308  0.36118196     0.88200
C222        C  0.10250685  0.77658673  0.39884602     0.88100
C223        C  0.08692738  0.69816316  0.44069153     0.88100
C224        C  0.05136636  0.76067128  0.33355201     0.88300
O225        O  0.00171531  0.91971782  0.12329750    -0.74000
O226        O  0.09549049  0.90114800  0.11970534    -0.74100
O227        O  0.05143955  0.91391834  0.16868856    -0.74100
O228        O  0.04974346  0.90555260  0.07205468    -0.74200
O229        O  0.06182873  0.95990714  0.06668543    -0.74100
O230        O  0.06639218  0.96807657  0.16556326    -0.74100
O231        O  0.10821328  0.95569166  0.11355534    -0.74000
O232        O  0.01404570  0.97432252  0.12108525    -0.74100
Ni233      Ni  0.04864303  0.90836305  0.12071290     1.25400
Ni234      Ni  0.06212845  0.96686193  0.11616922     1.25400
C235        C  0.99381013  0.95037390  0.12958551     0.88200
C236        C  0.11684793  0.92494913  0.11582645     0.88100
C237        C  0.06226712  0.94104054  0.18282394     0.88100
C238        C  0.06266195  0.92954862  0.05465699     0.88300
O239        O  0.36518166  0.74192796  0.04054549    -0.74000
O240        O  0.39488878  0.79650147  0.11730089    -0.74100
O241        O  0.42097858  0.73933272  0.09136691    -0.74100
O242        O  0.34546729  0.79776413  0.07184789    -0.74200
O243        O  0.31501429  0.76494682  0.10582704    -0.74100
O244        O  0.38776615  0.70749652  0.12319592    -0.74100
O245        O  0.36401772  0.76380656  0.15099542    -0.74000
O246        O  0.33534708  0.71017108  0.07565129    -0.74100
Ni247      Ni  0.38353162  0.76913152  0.07839796     1.25400
Ni248      Ni  0.34993733  0.73501817  0.11478171     1.25400
C249        C  0.33983728  0.72231947  0.04581116     0.88200
C250        C  0.37973401  0.79138162  0.14546153     0.88100
C251        C  0.41729079  0.71729495  0.11519706     0.88100
C252        C  0.31860601  0.79172102  0.08843312     0.88300
N253        N  0.43333122  0.89785596  0.38466026    -0.03100
C254        C  0.43825516  0.86566247  0.37183930    -0.00500
C255        C  0.45528970  0.84678694  0.39545162    -0.23400
C256        C  0.46512372  0.86844096  0.42100840    -0.23600
C257        C  0.45526513  0.90075004  0.41178394    -0.00600
H258        H  0.46211637  0.82053642  0.39304080     0.13200
H259        H  0.48340638  0.86201892  0.44040583     0.13200
N260        N  0.44526649  0.70544932  0.13631195    -0.03100
C261        C  0.43729189  0.70553650  0.17076594    -0.00500
C262        C  0.43238688  0.67262783  0.18105278    -0.23400
C263        C  0.44058551  0.65222355  0.15420823    -0.23600
C264        C  0.45577130  0.67272126  0.13017926    -0.00600
H265        H  0.42563001  0.66376491  0.20609964     0.13200
H266        H  0.44393653  0.62530216  0.15675902     0.13200
O267        O  0.07544421  0.01622925  0.89773081    -0.74000
O268        O  0.09364223  0.92110784  0.89822110    -0.74100
O269        O  0.05811486  0.95989896  0.94073324    -0.74100
O270        O  0.11017889  0.97402364  0.85992965    -0.74200
O271        O  0.15505927  0.98366014  0.89303106    -0.74100
O272        O  0.10320598  0.96929598  0.97319629    -0.74100
O273        O  0.13895355  0.93097331  0.93074219    -0.74000
O274        O  0.12005068  0.02507168  0.93105687    -0.74100
Ni275      Ni  0.08214542  0.96786593  0.89852239     1.25400
Ni276      Ni  0.13045986  0.97797232  0.93365088     1.25400
C277        C  0.09878037  0.03591155  0.90890915     0.88200
C278        C  0.12062947  0.91114452  0.91259750     0.88100
C279        C  0.07409273  0.95599128  0.96918066     0.88100
C280        C  0.14154418  0.98015001  0.86358286     0.88300
O281        O  0.35990006  0.93270295  0.57825327    -0.74000
O282        O  0.31188798  0.94806075  0.66084446    -0.74100
O283        O  0.30872729  0.90405774  0.60958220    -0.74100
O284        O  0.36403744  0.97895368  0.63175501    -0.74200
O285        O  0.32706878  0.01378828  0.60967481    -0.74100
O286        O  0.27304484  0.93706848  0.58121510    -0.74100
O287        O  0.27558199  0.98046579  0.63273159    -0.74000
O288        O  0.32453755  0.96496341  0.54965742    -0.74100
Ni289      Ni  0.33779550  0.94008182  0.62084449     1.25400
Ni290      Ni  0.29955696  0.97601889  0.59156581     1.25400
C291        C  0.34535908  0.94010817  0.54998567     0.88200
C292        C  0.28503662  0.96556909  0.65986058     0.88100
C293        C  0.28156748  0.90831657  0.59280919     0.88100
C294        C  0.34890452  0.00723280  0.63324231     0.88300
O295        O  0.32178950  0.61440257  0.89782449    -0.74000
O296        O  0.25817792  0.68248547  0.92614216    -0.74100
O297        O  0.27426093  0.64989105  0.86916270    -0.74100
O298        O  0.30558713  0.64697929  0.96005307    -0.74200
O299        O  0.33834952  0.69150684  0.95188425    -0.74100
O300        O  0.31404921  0.68686334  0.85538076    -0.74100
O301        O  0.29542170  0.72155207  0.91085599    -0.74000
O302        O  0.36036516  0.65448279  0.89341337    -0.74100
Ni303      Ni  0.28904002  0.64671576  0.91433954     1.25400
Ni304      Ni  0.32906354  0.68975748  0.90280271     1.25400
C305        C  0.34879243  0.62558028  0.88412848     0.88200
C306        C  0.26576088  0.71321483  0.91941741     0.88100
C307        C  0.28837412  0.66863478  0.84723371     0.88100
C308        C  0.32138983  0.67269366  0.97211727     0.88300
O309        O  0.14628956  0.58421343  0.56447078    -0.74000
O310        O  0.16959553  0.67488843  0.54749578    -0.74100
O311        O  0.18731284  0.62922633  0.59373723    -0.74100
O312        O  0.12774382  0.63536511  0.51509765    -0.74200
O313        O  0.08591772  0.64546706  0.55044298    -0.74100
O314        O  0.14583141  0.64912142  0.62602067    -0.74100
O315        O  0.12647580  0.69266455  0.57865242    -0.74000
O316        O  0.10766652  0.60044990  0.60178365    -0.74100
Ni317      Ni  0.15882460  0.62962273  0.55357886     1.25400
Ni318      Ni  0.11446471  0.64722242  0.59001805     1.25400
C319        C  0.12808645  0.57809728  0.59073961     0.88200
C320        C  0.15305298  0.69858329  0.56145721     0.88100
C321        C  0.17608192  0.63935992  0.62266166     0.88100
C322        C  0.09910109  0.64905173  0.52083637     0.88300
N323        N  0.32350624  0.90703145  0.49733091    -0.03100
C324        C  0.31442507  0.87422139  0.50360712    -0.00500
C325        C  0.33985156  0.85862035  0.52115823    -0.23400
C326        C  0.36196437  0.88361530  0.53094496    -0.23600
C327        C  0.34859527  0.91438710  0.52071217    -0.00600
H328        H  0.34081931  0.83248661  0.52862405     0.13200
H329        H  0.38144354  0.88005292  0.54993035     0.13200
N330        N  0.10335906  0.69368013  0.47391071    -0.03100
C331        C  0.10944372  0.72472480  0.48873230    -0.00500
C332        C  0.08586746  0.73068575  0.51375372    -0.23400
C333        C  0.06848948  0.70120053  0.51776278    -0.23600
C334        C  0.08490731  0.67691088  0.49828955    -0.00600
H335        H  0.08362115  0.75257392  0.53013914     0.13200
H336        H  0.05250000  0.69662161  0.53948550     0.13200
O337        O  0.91013192  0.20519096  0.92934815    -0.74000
O338        O  0.84936327  0.27840205  0.94192097    -0.74100
O339        O  0.86805141  0.22819451  0.98291616    -0.74100
O340        O  0.88704439  0.25529757  0.89202632    -0.74200
O341        O  0.84671418  0.22025953  0.87332117    -0.74100
O342        O  0.82395394  0.19816512  0.96478936    -0.74100
O343        O  0.80787328  0.24631890  0.92065902    -0.74000
O344        O  0.86773704  0.17186256  0.91424004    -0.74100
Ni345      Ni  0.88041911  0.24237322  0.93796848     1.25400
Ni346      Ni  0.83518213  0.20733930  0.91813127     1.25400
C347        C  0.89882474  0.18038569  0.91155327     0.88200
C348        C  0.82014447  0.27523075  0.92878104     0.88100
C349        C  0.83977213  0.21347698  0.98880221     0.88100
C350        C  0.86840993  0.24333602  0.86808308     0.88300
O351        O  0.53447762  0.41675528  0.87132045    -0.74000
O352        O  0.62936455  0.40454417  0.87592559    -0.74100
O353        O  0.58295054  0.40654018  0.92395675    -0.74100
O354        O  0.58461599  0.41475737  0.82690335    -0.74200
O355        O  0.59450265  0.47002112  0.83103954    -0.74100
O356        O  0.59108882  0.46171083  0.92990090    -0.74100
O357        O  0.63880320  0.45976082  0.88201506    -0.74000
O358        O  0.54278104  0.47195299  0.87576130    -0.74100
Ni359      Ni  0.58213878  0.40887191  0.87483933     1.25400
Ni360      Ni  0.59142638  0.46804646  0.88036147     1.25400
C361        C  0.52386504  0.44676745  0.86662342     0.88200
C362        C  0.64948618  0.42966236  0.87815605     0.88100
C363        C  0.59127617  0.43196585  0.94284583     0.88100
C364        C  0.59241573  0.44287569  0.81319240     0.88300
O365        O  0.87039305  0.43486156  0.56331348    -0.74000
O366        O  0.85917637  0.38502138  0.64382441    -0.74100
O367        O  0.90782997  0.42296034  0.62129659    -0.74100
O368        O  0.82230786  0.39475208  0.58855901    -0.74200
O369        O  0.84597752  0.34894822  0.56581034    -0.74100
O370        O  0.93266787  0.37990802  0.59514606    -0.74100
O371        O  0.88487591  0.34075039  0.62018899    -0.74000
O372        O  0.88819031  0.38968827  0.53562340    -0.74100
Ni373      Ni  0.86442716  0.41133931  0.60474823     1.25400
Ni374      Ni  0.88958110  0.36359227  0.57773660     1.25400
C375        C  0.87142558  0.41735692  0.53586313     0.88200
C376        C  0.87017012  0.35501983  0.64540040     0.88100
C377        C  0.93302058  0.40317381  0.61822088     0.88100
C378        C  0.82008511  0.36557865  0.57458599     0.88300
O379        O  0.55017163  0.20380309  0.56649103    -0.74000
O380        O  0.52963291  0.27524824  0.63048082    -0.74100
O381        O  0.57956165  0.25869228  0.59027568    -0.74100
O382        O  0.49434773  0.21995879  0.61053882    -0.74200
O383        O  0.51593094  0.19252464  0.65477323    -0.74100
O384        O  0.60271043  0.22657959  0.63054425    -0.74100
O385        O  0.55403832  0.24556190  0.67174567    -0.74000
O386        O  0.56814241  0.17271507  0.60944465    -0.74100
Ni387      Ni  0.53678888  0.23980318  0.59771743     1.25400
Ni388      Ni  0.56054393  0.20761152  0.64296577     1.25400
C389        C  0.57008643  0.18105822  0.57781962     0.88200
C390        C  0.54337836  0.27356895  0.66006925     0.88100
C391        C  0.60481709  0.24968310  0.60807171     0.88100
C392        C  0.49045868  0.20469958  0.63922625     0.88300
N393        N  0.49457839  0.45241419  0.84423174    -0.03100
C394        C  0.50146789  0.44329998  0.81086848    -0.00500
C395        C  0.50977202  0.47212603  0.79316448    -0.23400
C396        C  0.50416993  0.49903611  0.81437611    -0.23600
C397        C  0.48552392  0.48592992  0.84113382    -0.00600
H398        H  0.51292431  0.47421553  0.76596338     0.13200
H399        H  0.50236884  0.52450688  0.80484636     0.13200
N400        N  0.45775744  0.20556295  0.65559468    -0.03100
C401        C  0.44614888  0.23812861  0.65981321    -0.00500
C402        C  0.41924740  0.24307332  0.63807537    -0.23400
C403        C  0.41179328  0.21274451  0.62324862    -0.23600
C404        C  0.43205919  0.18878775  0.63864337    -0.00600
H405        H  0.40469239  0.26573230  0.63491445     0.13200
H406        H  0.38884766  0.20807657  0.60900231     0.13200
N407        N  0.10308278  0.06969001  0.89523973    -0.03100
C408        C  0.13601589  0.08004771  0.89043053    -0.00500
C409        C  0.14335331  0.10590274  0.91299237    -0.23400
C410        C  0.11380173  0.11501267  0.92813788    -0.23600
C411        C  0.08850388  0.09497610  0.91407133    -0.00600
H412        H  0.16706184  0.11900457  0.91568696     0.13200
H413        H  0.11051980  0.13808588  0.94262409     0.13200
N414        N  0.33063335  0.05101814  0.67998107    -0.03100
C415        C  0.32130818  0.04126267  0.71276371    -0.00500
C416        C  0.34110459  0.01481610  0.72298465    -0.23400
C417        C  0.35961980  0.00507863  0.69551790    -0.23600
C418        C  0.35046054  0.02507959  0.66808824    -0.00600
H419        H  0.33999443  0.00178573  0.74709471     0.13200
H420        H  0.37390651  0.98199748  0.69450873     0.13200
N421        N  0.94419383  0.18709168  0.86723510    -0.03100
C422        C  0.93591939  0.19228242  0.83313525    -0.00500
C423        C  0.90970855  0.17102202  0.82416187    -0.23400
C424        C  0.89873499  0.15608952  0.85349027    -0.23600
C425        C  0.91780134  0.16905765  0.88032767    -0.00600
H426        H  0.89674138  0.16986738  0.79984844     0.13200
H427        H  0.87500762  0.14291770  0.85554300     0.13200
N428        N  0.96011443  0.40670853  0.64313157    -0.03100
C429        C  0.95090910  0.39957436  0.67673996    -0.00500
C430        C  0.94605513  0.42969547  0.69420191    -0.23400
C431        C  0.95806691  0.45488703  0.67434722    -0.23600
C432        C  0.96988337  0.44003115  0.64474819    -0.00600
H433        H  0.93790844  0.43316305  0.72023757     0.13200
H434        H  0.96256002  0.48045289  0.68311898     0.13200
O435        O  0.38415308  0.55039173  0.80457703    -0.74000
O436        O  0.40810481  0.46196449  0.77772868    -0.74100
O437        O  0.35449400  0.50031094  0.77251723    -0.74100
O438        O  0.44087726  0.51140026  0.81000959    -0.74200
O439        O  0.42585284  0.48876113  0.85919120    -0.74100
O440        O  0.33526098  0.48175771  0.82227689    -0.74100
O441        O  0.38936380  0.44220614  0.82735923    -0.74000
O442        O  0.36669539  0.53212781  0.85499000    -0.74100
Ni443      Ni  0.39787512  0.50701135  0.78990430     1.25400
Ni444      Ni  0.37895090  0.48607301  0.84337365     1.25400
C445        C  0.36665130  0.55464448  0.83158313     0.88200
C446        C  0.40063955  0.43751316  0.79729214     0.88100
C447        C  0.33083043  0.48847319  0.79054464     0.88100
C448        C  0.44900797  0.49668258  0.83783890     0.88300
O449        O  0.04270073  0.10681357  0.87479963    -0.74000
O450        O  0.03018318  0.18407901  0.81805722    -0.74100
O451        O  0.08040080  0.14497075  0.83667123    -0.74100
O452        O  0.98756472  0.14876986  0.85470035    -0.74200
O453        O  0.99689244  0.18536084  0.89704642    -0.74100
O454        O  0.09246502  0.17813692  0.88144734    -0.74100
O455        O  0.04254861  0.21793116  0.86221434    -0.74000
O456        O  0.04999343  0.14114228  0.91910014    -0.74100
Ni457      Ni  0.03429162  0.14453190  0.84492854     1.25400
Ni458      Ni  0.04542063  0.18138530  0.89227255     1.25400
C459        C  0.05676406  0.11323719  0.90371128     0.88200
C460        C  0.03609102  0.21343748  0.83057334     0.88100
C461        C  0.10128886  0.16246253  0.85424649     0.88100
C462        C  0.97722905  0.17288131  0.87392998     0.88300
O463        O  0.07519742  0.51140452  0.63384893    -0.74000
O464        O  0.03982966  0.44117794  0.69029338    -0.74100
O465        O  0.09864886  0.47007924  0.68129949    -0.74100
O466        O  0.01239154  0.48166274  0.64322121    -0.74200
O467        O  0.01947795  0.43800732  0.60871767    -0.74100
O468        O  0.11214727  0.43625034  0.63762918    -0.74100
O469        O  0.05573249  0.40345385  0.65101311    -0.74000
O470        O  0.07948212  0.47404548  0.59147209    -0.74100
Ni471      Ni  0.05567942  0.47794814  0.66331662     1.25400
Ni472      Ni  0.06697837  0.43701858  0.61993228     1.25400
C473        C  0.08807266  0.50224675  0.60535439     0.88200
C474        C  0.04417361  0.41063929  0.68037767     0.88100
C475        C  0.11924383  0.45061602  0.66629583     0.88100
C476        C  0.00056062  0.45512770  0.62870277     0.88300
O477        O  0.33353287  0.10753241  0.66029731    -0.74000
O478        O  0.35668819  0.19888006  0.68449387    -0.74100
O479        O  0.38249344  0.15461810  0.63995451    -0.74100
O480        O  0.31136693  0.15348736  0.70305452    -0.74200
O481        O  0.34427941  0.13137567  0.74320305    -0.74100
O482        O  0.41899867  0.14526720  0.68147233    -0.74100
O483        O  0.38768734  0.18066983  0.72811390    -0.74000
O484        O  0.37248008  0.09046541  0.69711470    -0.74100
Ni485      Ni  0.34505581  0.15402522  0.67012085     1.25400
Ni486      Ni  0.38253435  0.13554455  0.71355963     1.25400
C487        C  0.34643940  0.08411772  0.67828917     0.88200
C488        C  0.37463224  0.20464295  0.71122714     0.88100
C489        C  0.41182576  0.15938368  0.65285382     0.88100
C490        C  0.31558564  0.14187708  0.73304157     0.88300
N491        N  0.34602197  0.58457395  0.83397908    -0.03100
C492        C  0.33593335  0.59695018  0.80273192    -0.00500
C493        C  0.35274377  0.62664762  0.79655458    -0.23400
C494        C  0.36880496  0.63555311  0.82632927    -0.23600
C495        C  0.36074655  0.61143694  0.85051419    -0.00600
H496        H  0.35160554  0.64148011  0.77358174     0.13200
H497        H  0.37933287  0.66032502  0.83125984     0.13200
N498        N  0.13291545  0.54678791  0.60900692    -0.03100
C499        C  0.16571590  0.53814070  0.61613549    -0.00500
C500        C  0.17404899  0.50937259  0.59840285    -0.23400
C501        C  0.14508101  0.49746039  0.58362020    -0.23600
C502        C  0.11943442  0.51897346  0.59330148    -0.00600
H503        H  0.19764430  0.49614576  0.59971490     0.13200
H504        H  0.14219004  0.47224918  0.57323618     0.13200
C505        C  0.27948983  0.57442089  0.65503741    -0.17400
C506        C  0.30367571  0.57997401  0.68071858    -0.19600
C507        C  0.29561522  0.57638487  0.71536439     0.21100
C508        C  0.26278958  0.56652385  0.72405345    -0.02500
C509        C  0.23801930  0.56111538  0.69784498    -0.05600
C510        C  0.24644377  0.56529281  0.66321113     0.21300
C511        C  0.20495075  0.55160308  0.70623042     0.19500
C512        C  0.19734441  0.54688979  0.74095396    -0.17100
C513        C  0.22171703  0.55242310  0.76680333    -0.19300
C514        C  0.25463432  0.56260287  0.75883023     0.21000
C515        C  0.27916555  0.56981632  0.78478434    -0.32300
C516        C  0.31191853  0.58113041  0.77639379     0.01700
C517        C  0.31963319  0.58351063  0.74126416    -0.23600
C518        C  0.22197815  0.55998127  0.63725638    -0.28200
C519        C  0.18850563  0.55102120  0.64485560     0.07300
C520        C  0.18040314  0.54670426  0.67982117    -0.26900
H521        H  0.28662151  0.57764534  0.62863540     0.12100
H522        H  0.32874295  0.58748541  0.67341622     0.13200
H523        H  0.17231383  0.53923224  0.74823829     0.12300
H524        H  0.21464712  0.54900044  0.79318417     0.11500
H525        H  0.27221052  0.56836372  0.81140626     0.16900
H526        H  0.34434190  0.59219389  0.73397365     0.12800
H527        H  0.22919717  0.56215058  0.61074489     0.15700
H528        H  0.15543085  0.53819020  0.68636888     0.15400
C529        C  0.25614582  0.15506561  0.84366311    -0.17400
C530        C  0.22582161  0.16086148  0.86071812    -0.19600
C531        C  0.19545677  0.16226851  0.84240187     0.21100
C532        C  0.19584092  0.15797406  0.80657132    -0.02500
C533        C  0.22601575  0.15166298  0.78962824    -0.05600
C534        C  0.25652638  0.15031432  0.80807262     0.21300
C535        C  0.22551452  0.14668063  0.75401022     0.19500
C536        C  0.19558484  0.14857640  0.73539190    -0.17100
C537        C  0.16587349  0.15528200  0.75204879    -0.19300
C538        C  0.16587640  0.15967022  0.78746700     0.21000
C539        C  0.13594230  0.16428468  0.80406349    -0.32300
C540        C  0.13472422  0.16562800  0.83970413     0.01700
C541        C  0.16452167  0.16669116  0.85898366    -0.23600
C542        C  0.28666314  0.14513755  0.79021606    -0.28200
C543        C  0.28575739  0.14105064  0.75451170     0.07300
C544        C  0.25502107  0.14049148  0.73712062    -0.26900
H545        H  0.27925536  0.15417451  0.85830499     0.12100
H546        H  0.22608594  0.16400690  0.88820385     0.13200
H547        H  0.19517108  0.14482600  0.70796234     0.12300
H548        H  0.14280470  0.15638457  0.73732841     0.11500
H549        H  0.11298956  0.16508710  0.78902727     0.16900
H550        H  0.16350404  0.16942722  0.88644954     0.12800
H551        H  0.31050153  0.14560582  0.80365019     0.15700
H552        H  0.25409513  0.13641364  0.70970255     0.15400
C553        C  0.02856305  0.26214724  0.71653035    -0.17400
C554        C  0.02876288  0.29020372  0.69549343    -0.19600
C555        C  0.03337856  0.32244949  0.70960538     0.21100
C556        C  0.03851072  0.32669858  0.74498755    -0.02500
C557        C  0.03864632  0.29848350  0.76605875    -0.05600
C558        C  0.03324805  0.26611814  0.75177824     0.21300
C559        C  0.04352468  0.30271966  0.80147993     0.19500
C560        C  0.04869279  0.33494107  0.81549679    -0.17100
C561        C  0.04833046  0.36307732  0.79453069    -0.19300
C562        C  0.04296630  0.35919417  0.75937231     0.21000
C563        C  0.04233206  0.38718820  0.73824562    -0.32300
C564        C  0.03799966  0.38279255  0.70307863     0.01700
C565        C  0.03311292  0.35057997  0.68889614    -0.23600
C566        C  0.03209889  0.23833140  0.77308750    -0.28200
C567        C  0.03647712  0.24256783  0.80833926     0.07300
C568        C  0.04248642  0.27468559  0.82238480    -0.26900
H569        H  0.02436547  0.23742535  0.70531871     0.12100
H570        H  0.02480245  0.28676323  0.66829962     0.13200
H571        H  0.05253251  0.33839860  0.84270805     0.12300
H572        H  0.05201147  0.38784670  0.80580392     0.11500
H573        H  0.04674662  0.41213287  0.74889212     0.16900
H574        H  0.02969554  0.34739009  0.66156525     0.12800
H575        H  0.02770415  0.21347775  0.76222027     0.15700
H576        H  0.04607610  0.27799877  0.84966375     0.15400
C577        C  0.18279765  0.44451096  0.77262680    -0.17400
C578        C  0.21232277  0.45188579  0.79063297    -0.19600
C579        C  0.24114039  0.46210356  0.77316591     0.21100
C580        C  0.24047841  0.46396058  0.73714710    -0.02500
C581        C  0.21112889  0.45561618  0.71899151    -0.05600
C582        C  0.18194198  0.44672043  0.73690535     0.21300
C583        C  0.21066619  0.45729878  0.68294404     0.19500
C584        C  0.23946660  0.46728200  0.66544290    -0.17100
C585        C  0.26835223  0.47633571  0.68351413    -0.19300
C586        C  0.26895956  0.47478362  0.71924059     0.21000
C587        C  0.29771695  0.48380624  0.73731395    -0.32300
C588        C  0.29892807  0.48138770  0.77310142     0.01700
C589        C  0.27058798  0.47058080  0.79098302    -0.23600
C590        C  0.15202771  0.44211480  0.71879564    -0.28200
C591        C  0.15133889  0.44563079  0.68315373     0.07300
C592        C  0.18086229  0.45093737  0.66516490    -0.26900
H593        H  0.16052062  0.43754660  0.78664194     0.12100
H594        H  0.21244852  0.45020904  0.81821751     0.13200
H595        H  0.23940957  0.46891806  0.63787326     0.12300
H596        H  0.29018923  0.48468810  0.66956105     0.11500
H597        H  0.31949005  0.49208562  0.72318529     0.16900
H598        H  0.27146353  0.46874256  0.81855581     0.12800
H599        H  0.12888737  0.43761131  0.73247524     0.15700
H600        H  0.17998029  0.45293802  0.63768158     0.15400
C601        C  0.37076382  0.35935712  0.70601478    -0.17400
C602        C  0.36607920  0.32650219  0.69411129    -0.19600
C603        C  0.37553291  0.29925708  0.71442059     0.21100
C604        C  0.39025842  0.30500628  0.74683047    -0.02500
C605        C  0.39451144  0.33801751  0.75902830    -0.05600
C606        C  0.38475015  0.36524060  0.73842790     0.21300
C607        C  0.40817870  0.34378487  0.79194272     0.19500
C608        C  0.41826689  0.31654766  0.81194569    -0.17100
C609        C  0.41461582  0.28370454  0.79952749    -0.19300
C610        C  0.40039319  0.27777033  0.76718833     0.21000
C611        C  0.39578703  0.24503074  0.75497090    -0.32300
C612        C  0.38040137  0.23919309  0.72308646     0.01700
C613        C  0.37023901  0.26633334  0.70299838    -0.23600
C614        C  0.38881242  0.39792869  0.75076670    -0.28200
C615        C  0.40155624  0.40358542  0.78368496     0.07300
C616        C  0.41116418  0.37671114  0.80431493    -0.26900
H617        H  0.36330681  0.38014313  0.68998887     0.12100
H618        H  0.35502035  0.32238958  0.66907374     0.13200
H619        H  0.42904742  0.32065939  0.83710013     0.12300
H620        H  0.42263437  0.26293961  0.81531462     0.11500
H621        H  0.40361406  0.22409268  0.77064667     0.16900
H622        H  0.35830981  0.26185990  0.67842219     0.12800
H623        H  0.38083049  0.41897627  0.73529516     0.15700
H624        H  0.42082223  0.38151930  0.82984445     0.15400
C625        C  0.96144131  0.31569661  0.81273548    -0.17400
C626        C  0.96265706  0.34364997  0.79087828    -0.19600
C627        C  0.95767068  0.34003072  0.75538056     0.21100
C628        C  0.95171371  0.30774664  0.74185315    -0.02500
C629        C  0.95051852  0.27913693  0.76420749    -0.05600
C630        C  0.95532444  0.28306073  0.79989599     0.21300
C631        C  0.94426001  0.24673230  0.75090167     0.19500
C632        C  0.93965288  0.24320974  0.71528017    -0.17100
C633        C  0.94110875  0.27129801  0.69331577    -0.19300
C634        C  0.94701875  0.30408076  0.70610757     0.21000
C635        C  0.94795127  0.33304469  0.68409451    -0.32300
C636        C  0.95289142  0.36618693  0.69745342     0.01700
C637        C  0.95858036  0.36830854  0.73353112    -0.23600
C638        C  0.95316744  0.25468375  0.82216615    -0.28200
C639        C  0.94575468  0.22187061  0.80956357     0.07300
C640        C  0.94196707  0.21864541  0.77334768    -0.26900
H641        H  0.96527752  0.31969655  0.83986008     0.12100
H642        H  0.96746439  0.36832767  0.80189458     0.13200
H643        H  0.93460031  0.21857711  0.70428819     0.12300
H644        H  0.93720214  0.26733598  0.66619833     0.11500
H645        H  0.94392347  0.32978069  0.65692223     0.16900
H646        H  0.96438228  0.39233458  0.74533567     0.12800
H647        H  0.95565844  0.25849453  0.84947603     0.15700
H648        H  0.93629319  0.19411204  0.76245153     0.15400
C649        C  0.17295669  0.06767135  0.76656858    -0.17400
C650        C  0.19868904  0.06460444  0.74194839    -0.19600
C651        C  0.23265115  0.06125407  0.75158397     0.21100
C652        C  0.24012460  0.06114001  0.78689698    -0.02500
C653        C  0.21389452  0.06371705  0.81195162    -0.05600
C654        C  0.18000977  0.06692500  0.80189015     0.21300
C655        C  0.22170273  0.06324024  0.84710759     0.19500
C656        C  0.25554561  0.06037425  0.85694926    -0.17100
C657        C  0.28114210  0.05788610  0.83249498    -0.19300
C658        C  0.27384199  0.05820434  0.79729954     0.21000
C659        C  0.29970141  0.05496360  0.77263209    -0.32300
C660        C  0.29324798  0.05403509  0.73683038     0.01700
C661        C  0.25900453  0.05752312  0.72681482    -0.23600
C662        C  0.15408937  0.06974495  0.82714038    -0.28200
C663        C  0.16149491  0.06949548  0.86278116     0.07300
C664        C  0.19586768  0.06619232  0.87187960    -0.26900
H665        H  0.14730494  0.07030255  0.75782796     0.12100
H666        H  0.19189910  0.06491041  0.71515601     0.13200
H667        H  0.26232471  0.06006900  0.88376118     0.12300
H668        H  0.30684637  0.05558342  0.84123207     0.11500
H669        H  0.32526949  0.05191893  0.78156052     0.16900
H670        H  0.25262823  0.05588440  0.69994744     0.12800
H671        H  0.12839204  0.07350240  0.81900644     0.15700
H672        H  0.20272149  0.06678275  0.89869203     0.15400
C673        C  0.49698805  0.28745962  0.76948625    -0.17400
C674        C  0.50311746  0.31567084  0.79108846    -0.19600
C675        C  0.49489317  0.34860833  0.78085978     0.21100
C676        C  0.48065865  0.35258152  0.74805146    -0.02500
C677        C  0.47459505  0.32405396  0.72613542    -0.05600
C678        C  0.48257700  0.29113711  0.73675704     0.21300
C679        C  0.46028677  0.32861292  0.69356781     0.19500
C680        C  0.45206035  0.36127782  0.68305717    -0.17100
C681        C  0.45761514  0.38908830  0.70462539    -0.19300
C682        C  0.47201425  0.38509734  0.73713549     0.21000
C683        C  0.47782387  0.41328282  0.75859075    -0.32300
C684        C  0.49238755  0.41054560  0.79156367     0.01700
C685        C  0.50058385  0.37748375  0.80253193    -0.23600
C686        C  0.47523716  0.26276992  0.71486818    -0.28200
C687        C  0.46029399  0.26707003  0.68210560     0.07300
C688        C  0.45406601  0.30066074  0.67192081    -0.26900
H689        H  0.50336215  0.26262277  0.77857821     0.12100
H690        H  0.51410010  0.31160690  0.81605718     0.13200
H691        H  0.44095564  0.36534545  0.65813923     0.12300
H692        H  0.45073428  0.41388230  0.69573970     0.11500
H693        H  0.47060834  0.43781743  0.74929809     0.16900
H694        H  0.51207276  0.37412735  0.82732206     0.12800
H695        H  0.48002717  0.23751247  0.72379669     0.15700
H696        H  0.44352434  0.30537558  0.64691125     0.15400
C697        C  0.66686882  0.35209598  0.58044661    -0.17400
C698        C  0.69728099  0.36871353  0.57531723    -0.19600
C699        C  0.72740834  0.35078526  0.57656273     0.21100
C700        C  0.72703298  0.31589079  0.58321665    -0.02500
C701        C  0.69670411  0.29959891  0.59003500    -0.05600
C702        C  0.66645028  0.31765488  0.58795569     0.21300
C703        C  0.69669036  0.26537942  0.59949367     0.19500
C704        C  0.72672260  0.24732676  0.60045158    -0.17100
C705        C  0.75674238  0.26315345  0.59209966    -0.19300
C706        C  0.75706503  0.29741554  0.58386930     0.21000
C707        C  0.78712532  0.31381936  0.57756491    -0.32300
C708        C  0.78778745  0.34874813  0.57273297     0.01700
C709        C  0.75803001  0.36721319  0.57227643    -0.23600
C710        C  0.63632184  0.30082157  0.59337197    -0.28200
C711        C  0.63642738  0.26691580  0.60294885     0.07300
C712        C  0.66655049  0.24983752  0.60773575    -0.26900
H713        H  0.64374725  0.36620652  0.57893329     0.12100
H714        H  0.69724154  0.39546381  0.57008355     0.13200
H715        H  0.72694026  0.22096764  0.60733761     0.12300
H716        H  0.77976880  0.24881679  0.59275684     0.11500
H717        H  0.81029820  0.29970618  0.57886996     0.16900
H718        H  0.75880833  0.39431127  0.56953278     0.12800
H719        H  0.61282647  0.31423004  0.59089797     0.15700
H720        H  0.66638598  0.22424209  0.61697764     0.15400
C721        C  0.63574447  0.35882442  0.75223081    -0.17400
C722        C  0.62322029  0.33005451  0.73589926    -0.19600
C723        C  0.59416175  0.33186516  0.71567733     0.21100
C724        C  0.57849254  0.36304037  0.71029446    -0.02500
C725        C  0.58999184  0.39160788  0.72831557    -0.05600
C726        C  0.61844718  0.38929934  0.74965071     0.21300
C727        C  0.57185758  0.42193553  0.72687459     0.19500
C728        C  0.54539940  0.42478460  0.70326504    -0.17100
C729        C  0.53559877  0.39691490  0.68317449    -0.19300
C730        C  0.55073470  0.36540171  0.68796666     0.21000
C731        C  0.53864789  0.33614511  0.67132720    -0.32300
C732        C  0.55258203  0.30455203  0.67895265     0.01700
C733        C  0.58047882  0.30289357  0.70098215    -0.23600
C734        C  0.62652105  0.41617269  0.77131876    -0.28200
C735        C  0.60261562  0.44117934  0.77714549     0.07300
C736        C  0.57883209  0.44719081  0.75141544    -0.26900
H737        H  0.65757043  0.35671562  0.76865934     0.12100
H738        H  0.63589025  0.30628522  0.73959039     0.13200
H739        H  0.53157984  0.44810542  0.70118672     0.12300
H740        H  0.51503470  0.39956492  0.66524425     0.11500
H741        H  0.51829723  0.33784867  0.65298973     0.16900
H742        H  0.59270199  0.27904251  0.70565856     0.12800
H743        H  0.64656149  0.41331280  0.78953711     0.15700
H744        H  0.56417727  0.46983708  0.75248582     0.15400
C745        C  0.78335463  0.39370017  0.94132726    -0.17400
C746        C  0.75884364  0.41751890  0.93316944    -0.19600
C747        C  0.73717946  0.41197143  0.90530078     0.21100
C748        C  0.74276728  0.38417318  0.88334689    -0.02500
C749        C  0.76625146  0.35961373  0.89240713    -0.05600
C750        C  0.78538542  0.36348133  0.92262267     0.21300
C751        C  0.76834118  0.32979258  0.87279756     0.19500
C752        C  0.75044063  0.32648831  0.84209743    -0.17100
C753        C  0.72741886  0.35099897  0.83289224    -0.19300
C754        C  0.72212417  0.37871877  0.85451551     0.21000
C755        C  0.69380987  0.39831954  0.85029478    -0.32300
C756        C  0.68513372  0.42230743  0.87504612     0.01700
C757        C  0.70802400  0.43122845  0.90095372    -0.23600
C758        C  0.80430352  0.33620700  0.93451589    -0.28200
C759        C  0.80249313  0.30513182  0.91718363     0.08500
C760        C  0.78630056  0.30279475  0.88542046    -0.26900
H761        H  0.79896842  0.39779659  0.96370458     0.12100
H762        H  0.75561494  0.43922016  0.94973976     0.13200
H763        H  0.75264732  0.30402145  0.82639276     0.12300
H764        H  0.71200436  0.34697389  0.81033029     0.11500
H765        H  0.67599795  0.39129803  0.83066392     0.16900
H766        H  0.70126521  0.44999255  0.91991296     0.12800
H767        H  0.81875125  0.33853677  0.95793425     0.15700
H768        H  0.78709097  0.27951901  0.87073690     0.15400
C769        C  0.87397876  0.36065865  0.76889973    -0.17400
C770        C  0.87558581  0.34467785  0.80028109    -0.19600
C771        C  0.87156821  0.30970709  0.80199514     0.21100
C772        C  0.86480317  0.29060657  0.77216777    -0.02500
C773        C  0.86387467  0.30656296  0.74054051    -0.05600
C774        C  0.86876109  0.34169161  0.73902851     0.21300
C775        C  0.85911460  0.28730010  0.71038260     0.19500
C776        C  0.85350747  0.25250851  0.71238261    -0.17100
C777        C  0.85344064  0.23672589  0.74405943    -0.19300
C778        C  0.85960088  0.25551416  0.77392042     0.21000
C779        C  0.86095185  0.23987830  0.80555153    -0.32300
C780        C  0.86939231  0.25865075  0.83479259     0.01700
C781        C  0.87447475  0.29343980  0.83304140    -0.23600
C782        C  0.86950542  0.35716203  0.70753279    -0.28200
C783        C  0.86668788  0.33789646  0.67757261     0.07300
C784        C  0.86106491  0.30314731  0.67880425    -0.26900
H785        H  0.87774804  0.38767404  0.76786843     0.12100
H786        H  0.88045681  0.35955744  0.82311512     0.13200
H787        H  0.84964276  0.23748663  0.68946598     0.12300
H788        H  0.84940669  0.20975761  0.74515274     0.11500
H789        H  0.85560425  0.21320927  0.80746039     0.16900
H790        H  0.87960286  0.30800373  0.85606921     0.12800
H791        H  0.87399063  0.38409969  0.70624875     0.15700
H792        H  0.85840700  0.28864221  0.65535891     0.15400
C793        C  0.22861102  0.74967854  0.45456994    -0.17400
C794        C  0.25724524  0.77054790  0.45701931    -0.19600
C795        C  0.25538741  0.80325659  0.47103118     0.21100
C796        C  0.22391826  0.81528537  0.48156726    -0.02500
C797        C  0.19500315  0.79383721  0.47971413    -0.05600
C798        C  0.19729929  0.76070127  0.46645391     0.21300
C799        C  0.16423570  0.80499395  0.49280055     0.19500
C800        C  0.16237345  0.83753826  0.50698537    -0.17100
C801        C  0.19051003  0.85896929  0.50790924    -0.19300
C802        C  0.22163872  0.84809631  0.49562724     0.21000
C803        C  0.25079778  0.86855232  0.49933878    -0.32300
C804        C  0.28285718  0.85600922  0.49118893     0.01700
C805        C  0.28458138  0.82335293  0.47637949    -0.23600
C806        C  0.16886234  0.73873235  0.46698913    -0.28200
C807        C  0.13807253  0.74925210  0.48123561     0.07300
C808        C  0.13620829  0.78307101  0.49305009    -0.26900
H809        H  0.23122324  0.72444537  0.44425373     0.12100
H810        H  0.28110900  0.76075138  0.44856379     0.13200
H811        H  0.13908297  0.84638505  0.51783344     0.12300
H812        H  0.18811424  0.88375909  0.51935137     0.11500
H813        H  0.24888979  0.89317278  0.51129570     0.16900
H814        H  0.30890777  0.81311007  0.47006002     0.12800
H815        H  0.17128692  0.71294956  0.45813321     0.15700
H816        H  0.11303364  0.79242083  0.50360642     0.15400
C817        C  0.27970128  0.66666155  0.68856630    -0.17400
C818        C  0.29461420  0.67363259  0.72044247    -0.19600
C819        C  0.27671806  0.66842694  0.75072784     0.21100
C820        C  0.24382692  0.65516319  0.74872677    -0.02500
C821        C  0.22876989  0.64850304  0.71682417    -0.05600
C822        C  0.24655765  0.65461323  0.68643000     0.21300
C823        C  0.19551082  0.63637704  0.71543291     0.19500
C824        C  0.17786641  0.62999037  0.74542623    -0.17100
C825        C  0.19288951  0.63615070  0.77691774    -0.19300
C826        C  0.22559110  0.64902800  0.77867976     0.21000
C827        C  0.24032457  0.65546060  0.81014594    -0.32300
C828        C  0.27329066  0.66785529  0.81279897     0.01700
C829        C  0.29100003  0.67575282  0.78300721    -0.23600
C830        C  0.23030178  0.64963582  0.65470888    -0.28200
C831        C  0.19657900  0.63914606  0.65377116     0.07300
C832        C  0.17989509  0.63166951  0.68408951    -0.26900
H833        H  0.29390763  0.67119849  0.66557549     0.12100
H834        H  0.32007817  0.68320858  0.72140350     0.13200
H835        H  0.15237532  0.62041104  0.74451170     0.12300
H836        H  0.17885358  0.63106663  0.79990203     0.11500
H837        H  0.22596019  0.65016244  0.83290335     0.16900
H838        H  0.31600875  0.68633493  0.78497548     0.12800
H839        H  0.24312109  0.65544798  0.63116301     0.15700
H840        H  0.15405406  0.62295873  0.68327370     0.15400
C841        C  0.25444661  0.76331039  0.55008005    -0.17400
C842        C  0.27345781  0.79163889  0.55810626    -0.19600
C843        C  0.25782786  0.82041286  0.57105081     0.21100
C844        C  0.22294222  0.82078635  0.57662190    -0.02500
C845        C  0.20411564  0.79156494  0.57044292    -0.05600
C846        C  0.21998489  0.76309806  0.55650013     0.21300
C847        C  0.16959919  0.79074516  0.57822359     0.19500
C848        C  0.15404226  0.81990602  0.59077254    -0.17100
C849        C  0.17251405  0.84974088  0.59511294    -0.19300
C850        C  0.20698213  0.85037158  0.58813609     0.21000
C851        C  0.22591984  0.87996881  0.59193373    -0.32300
C852        C  0.26064335  0.87904236  0.58676177     0.01700
C853        C  0.27651721  0.84906482  0.57800011    -0.23600
C854        C  0.20146587  0.73430053  0.55020169    -0.28200
C855        C  0.16786453  0.73217548  0.56031154     0.07300
C856        C  0.15167230  0.76055045  0.57383847    -0.26900
H857        H  0.26676460  0.74137938  0.53945067     0.12100
H858        H  0.30019337  0.79130585  0.55347254     0.13200
H859        H  0.12756073  0.81976754  0.59670165     0.12300
H860        H  0.15993828  0.87220644  0.60410285     0.11500
H861        H  0.21407500  0.90320794  0.59995842     0.16900
H862        H  0.30350811  0.84834557  0.57581506     0.12800
H863        H  0.21426308  0.71262490  0.53958913     0.15700
H864        H  0.12567842  0.75891917  0.58152615     0.15400
C865        C  0.25224007  0.96746677  0.81280872    -0.17400
C866        C  0.27223337  0.96351550  0.78404408    -0.19600
C867        C  0.25824464  0.96691254  0.75138428     0.21100
C868        C  0.22394504  0.97467914  0.74751651    -0.02500
C869        C  0.20366428  0.97771296  0.77636746    -0.05600
C870        C  0.21795295  0.97417662  0.80912448     0.21300
C871        C  0.16904462  0.98393708  0.77241581     0.19500
C872        C  0.15522226  0.98805402  0.73976814    -0.17100
C873        C  0.17560098  0.98598058  0.71109490    -0.19300
C874        C  0.20985361  0.97914520  0.71479311     0.21000
C875        C  0.23029491  0.97665498  0.68630056    -0.32300
C876        C  0.26424875  0.96844735  0.69007215     0.01700
C877        C  0.27791242  0.96269416  0.72246130    -0.23600
C878        C  0.19752897  0.97665816  0.83762526    -0.28200
C879        C  0.16293302  0.98164752  0.83370315     0.07300
C880        C  0.14881352  0.98564911  0.80119862    -0.26900
H881        H  0.26345469  0.96479699  0.83789316     0.12100
H882        H  0.29861957  0.95792563  0.78731767     0.13200
H883        H  0.12873674  0.99308601  0.73644881     0.12300
H884        H  0.16456280  0.98948708  0.68605086     0.11500
H885        H  0.21960516  0.98041634  0.66111716     0.16900
H886        H  0.30396722  0.95554148  0.72516900     0.12800
H887        H  0.20841107  0.97338667  0.86280432     0.15700
H888        H  0.12211728  0.98987481  0.79831895     0.15400
C889        C  0.13579031  0.79444319  0.94775517    -0.17400
C890        C  0.15779839  0.76727092  0.95108921    -0.19600
C891        C  0.18731411  0.76594606  0.93182090     0.21100
C892        C  0.19428882  0.79208590  0.90853511    -0.02500
C893        C  0.17234793  0.81945992  0.90536248    -0.05600
C894        C  0.14309877  0.82084757  0.92534438     0.21300
C895        C  0.18072847  0.84646880  0.88369765     0.19500
C896        C  0.20977010  0.84509983  0.86394041    -0.17100
C897        C  0.23122003  0.81774958  0.86665792    -0.19300
C898        C  0.22397837  0.79168570  0.88939814     0.21000
C899        C  0.24651231  0.76564157  0.89378401    -0.32300
C900        C  0.24034290  0.73974526  0.91718569     0.01700
C901        C  0.21043270  0.73955077  0.93587113    -0.23600
C902        C  0.12325237  0.84980920  0.92431482    -0.28200
C903        C  0.13350297  0.87766127  0.90544867     0.07300
C904        C  0.16126282  0.87544792  0.88402604    -0.26900
H905        H  0.11361300  0.79540002  0.96359300     0.12100
H906        H  0.15207403  0.74763894  0.96918965     0.13200
H907        H  0.21636675  0.86560693  0.84713772     0.12300
H908        H  0.25396293  0.81743574  0.85170035     0.11500
H909        H  0.26912590  0.76555962  0.87857187     0.16900
H910        H  0.20557003  0.71949082  0.95377975     0.12800
H911        H  0.10123742  0.85175353  0.94006083     0.15700
H912        H  0.16895022  0.89724256  0.86940678     0.15400
C913        C  0.39007588  0.74518846  0.28128184    -0.17400
C914        C  0.39000247  0.76727385  0.30945198    -0.19600
C915        C  0.40714236  0.79823962  0.30844368     0.21100
C916        C  0.42376964  0.80724115  0.27815825    -0.02500
C917        C  0.42454497  0.78429239  0.24968408    -0.05600
C918        C  0.40781341  0.75312129  0.25149493     0.21300
C919        C  0.44266203  0.79210069  0.21988754     0.19500
C920        C  0.45821027  0.82398857  0.21843871    -0.17100
C921        C  0.45702727  0.84683711  0.24630170    -0.19300
C922        C  0.44057640  0.83852329  0.27680858     0.21000
C923        C  0.44199301  0.85994602  0.30637188    -0.32300
C924        C  0.42720769  0.85018732  0.33770275     0.01700
C925        C  0.40914359  0.81942197  0.33772420    -0.23600
C926        C  0.40986138  0.72975103  0.22419712    -0.28200
C927        C  0.43001718  0.73543812  0.19500032     0.07300
C928        C  0.44561116  0.76764681  0.19283015    -0.26900
H929        H  0.37694682  0.72133016  0.28320972     0.12100
H930        H  0.37689599  0.75982947  0.33231946     0.13200
H931        H  0.47178564  0.83118939  0.19578334     0.12300
H932        H  0.46984620  0.87082927  0.24424762     0.11500
H933        H  0.45676152  0.88290244  0.30571259     0.16900
H934        H  0.39813116  0.81099129  0.36139234     0.12800
H935        H  0.39621754  0.70629340  0.22654992     0.15700
H936        H  0.46100315  0.77322013  0.17090186     0.15400
C937        C  0.24933362  0.88722028  0.04784135    -0.17400
C938        C  0.22102609  0.90745333  0.05262971    -0.19600
C939        C  0.20172214  0.90439169  0.08230200     0.21100
C940        C  0.21162480  0.88154441  0.10780675    -0.02500
C941        C  0.23960180  0.86108496  0.10281733    -0.05600
C942        C  0.25850761  0.86351755  0.07253944     0.21300
C943        C  0.24763281  0.83696362  0.12759060     0.19500
C944        C  0.22890120  0.83396189  0.15740249    -0.17100
C945        C  0.20143534  0.85434712  0.16246827    -0.19300
C946        C  0.19230397  0.87751464  0.13753753     0.21000
C947        C  0.16262470  0.89470667  0.14079989    -0.32300
C948        C  0.15170131  0.91581856  0.11499057     0.01700
C949        C  0.17153410  0.92190474  0.08623138    -0.23600
C950        C  0.28534808  0.84129236  0.06729086    -0.28200
C951        C  0.29214160  0.81656507  0.09172380     0.07300
C952        C  0.27355453  0.81512910  0.12182262    -0.26900
H953        H  0.26339782  0.88935814  0.02439164     0.12100
H954        H  0.21365578  0.92471008  0.03270971     0.13200
H955        H  0.23483941  0.81512417  0.17630545     0.12300
H956        H  0.18671158  0.85107563  0.18525181     0.11500
H957        H  0.14650994  0.88932421  0.16210715     0.16900
H958        H  0.16220653  0.93781509  0.06595595     0.12800
H959        H  0.29993238  0.84238327  0.04408051     0.15700
H960        H  0.27894938  0.79645679  0.14107595     0.15400
C961        C  0.11227254  0.82738396  0.24966865    -0.17400
C962        C  0.11883296  0.85854016  0.23477824    -0.19600
C963        C  0.09665138  0.88542127  0.23928235     0.21100
C964        C  0.06818005  0.88133147  0.25991725    -0.02500
C965        C  0.06182765  0.85009216  0.27547998    -0.05600
C966        C  0.08375416  0.82286021  0.26990519     0.21300
C967        C  0.03367322  0.84617816  0.29663670     0.19500
C968        C  0.01253797  0.87378333  0.30251323    -0.17100
C969        C  0.01855431  0.90464347  0.28654790    -0.19300
C970        C  0.04575547  0.90835453  0.26430333     0.21000
C971        C  0.04964248  0.93730567  0.24411133    -0.32300
C972        C  0.07386284  0.93774649  0.21834986     0.01700
C973        C  0.10067994  0.91525891  0.22097610    -0.23600
C974        C  0.07767064  0.79203518  0.28587286    -0.28200
C975        C  0.05065451  0.78832586  0.30844714     0.07300
C976        C  0.02813607  0.81525851  0.31281004    -0.26900
H977        H  0.12958605  0.80685373  0.24544615     0.12100
H978        H  0.14069211  0.86133914  0.21895779     0.13200
H979        H  0.99124389  0.87147084  0.31935701     0.12300
H980        H  0.00146860  0.92529013  0.29099697     0.11500
H981        H  0.03168057  0.95752188  0.24542644     0.16900
H982        H  0.12095608  0.91734895  0.20302115     0.12800
H983        H  0.09553953  0.77178842  0.28273105     0.15700
H984        H  0.00749672  0.81291372  0.33049857     0.15400
C985        C  0.29145540  0.87462700  0.24031460    -0.17400
C986        C  0.29998149  0.84909162  0.21754617    -0.19600
C987        C  0.33225874  0.84794058  0.20379810     0.21100
C988        C  0.35560190  0.87373502  0.21103312    -0.02500
C989        C  0.34772763  0.89834828  0.23560095    -0.05600
C990        C  0.31573228  0.89819457  0.25077716     0.21300
C991        C  0.37291291  0.92059823  0.24767778     0.19500
C992        C  0.40403704  0.92146313  0.23110722    -0.17100
C993        C  0.41089242  0.89868522  0.20450901    -0.19300
C994        C  0.38756105  0.87339895  0.19572061     0.21000
C995        C  0.39587749  0.84687201  0.17328233    -0.32300
C996        C  0.37376444  0.81945128  0.16914354     0.01700
C997        C  0.34194250  0.82058551  0.18410635    -0.23600
C998        C  0.31008287  0.91816512  0.27942299    -0.28200
C999        C  0.33718887  0.93407262  0.29580758     0.07300
C1000       C  0.36766080  0.93820508  0.27846886    -0.26900
H1001       H  0.26684209  0.87423987  0.25184555     0.12100
H1002       H  0.28181058  0.82948589  0.21177937     0.13200
H1003       H  0.42349607  0.93877731  0.23960585     0.12300
H1004       H  0.43536144  0.89922399  0.19267065     0.11500
H1005       H  0.41986510  0.84671384  0.16046848     0.16900
H1006       H  0.32414433  0.80025651  0.17984722     0.12800
H1007       H  0.28655101  0.91553909  0.29290818     0.15700
H1008       H  0.38851627  0.95087633  0.29108840     0.15400
C1009       C  0.17190077  0.85358891  0.33186551    -0.17400
C1010       C  0.19334983  0.88142773  0.32972281    -0.19600
C1011       C  0.19926274  0.90193456  0.35851644     0.21100
C1012       C  0.18109442  0.89628669  0.38866171    -0.02500
C1013       C  0.15839246  0.86896085  0.39036130    -0.05600
C1014       C  0.15539320  0.84649788  0.36250571     0.21300
C1015       C  0.14013331  0.86311681  0.42048957     0.19500
C1016       C  0.14303929  0.88642205  0.44753572    -0.17100
C1017       C  0.16761854  0.91185666  0.44690998    -0.19300
C1018       C  0.18782819  0.91600862  0.41805578     0.21000
C1019       C  0.21664735  0.93673373  0.41894008    -0.32300
C1020       C  0.23753150  0.93850884  0.39020090     0.01700
C1021       C  0.22578112  0.92516145  0.35893931    -0.23600
C1022       C  0.13705341  0.81667775  0.36619252    -0.28200
C1023       C  0.12061031  0.80924078  0.39693838     0.07300
C1024       C  0.12048217  0.83355616  0.42331097    -0.26900
H1025       H  0.16913490  0.83695756  0.30992129     0.12100
H1026       H  0.20697816  0.88554838  0.30631505     0.13200
H1027       H  0.12776043  0.88374821  0.47006147     0.12300
H1028       H  0.17153429  0.92751748  0.46937793     0.11500
H1029       H  0.22527272  0.94728221  0.44308214     0.16900
H1030       H  0.24169669  0.92685681  0.33669261     0.12800
H1031       H  0.13567637  0.79900552  0.34495926     0.15700
H1032       H  0.10653930  0.82878083  0.44639931     0.15400
C1033       C  0.18672277  0.78255085  0.08681336    -0.17400
C1034       C  0.15968288  0.80527795  0.08537765    -0.19600
C1035       C  0.15596157  0.82767338  0.05797137     0.21100
C1036       C  0.18077578  0.82749387  0.03236489    -0.02500
C1037       C  0.20814148  0.80399760  0.03358868    -0.05600
C1038       C  0.21087476  0.78119580  0.06075343     0.21300
C1039       C  0.23229782  0.80286129  0.00731268     0.19500
C1040       C  0.22930893  0.82628905  0.98069529    -0.17100
C1041       C  0.20276847  0.84972202  0.97979518    -0.19300
C1042       C  0.17785747  0.85025677  0.00515238     0.21000
C1043       C  0.14971867  0.87232716  0.00317058    -0.32300
C1044       C  0.12344967  0.87181286  0.02753384     0.01700
C1045       C  0.12743769  0.84925965  0.05518316    -0.23600
C1046       C  0.23690076  0.75676647  0.06095654    -0.28200
C1047       C  0.26076218  0.75390479  0.03419607     0.07300
C1048       C  0.25824644  0.77791200  0.00761836    -0.26900
H1049       H  0.18839676  0.76552441  0.10819268     0.12100
H1050       H  0.14138293  0.80504030  0.10567171     0.13200
H1051       H  0.24734939  0.82626383  0.96016579     0.12300
H1052       H  0.20133012  0.86704862  0.95865377     0.11500
H1053       H  0.14734325  0.88881071  0.98150884     0.16900
H1054       H  0.10763032  0.84747604  0.07385946     0.12800
H1055       H  0.23770729  0.73871683  0.08152436     0.15700
H1056       H  0.27523481  0.77606272  0.98624198     0.15400
C1057       C  0.93622342  0.80767954  0.30311101    -0.17400
C1058       C  0.93171299  0.83970412  0.28835947    -0.19600
C1059       C  0.93793241  0.84524203  0.25346258     0.21100
C1060       C  0.94786583  0.81767308  0.23320579    -0.02500
C1061       C  0.95239899  0.78504704  0.24822736    -0.05600
C1062       C  0.94702063  0.77994773  0.28349465     0.21300
C1063       C  0.96281120  0.75767804  0.22798325     0.19500
C1064       C  0.96831398  0.76297164  0.19294897    -0.17100
C1065       C  0.96414459  0.79499426  0.17829949    -0.19300
C1066       C  0.95405755  0.82282948  0.19809338     0.21000
C1067       C  0.95116374  0.85569375  0.18363932    -0.32300
C1068       C  0.94239683  0.88409445  0.20379402     0.01700
C1069       C  0.93553224  0.87794413  0.23886349    -0.23600
C1070       C  0.95332993  0.74769791  0.29854033    -0.28200
C1071       C  0.96478842  0.71998402  0.27866995     0.07300
C1072       C  0.96833249  0.72570787  0.24301412    -0.26900
H1073       H  0.93160804  0.80473905  0.33012646     0.12100
H1074       H  0.92379419  0.86039972  0.30452385     0.13200
H1075       H  0.97632933  0.74230424  0.17679630     0.12300
H1076       H  0.96910551  0.79801080  0.15135212     0.11500
H1077       H  0.95786033  0.85948908  0.15719625     0.16900
H1078       H  0.92969873  0.89915782  0.25531835     0.12800
H1079       H  0.95055902  0.74462632  0.32581555     0.15700
H1080       H  0.97645089  0.70523049  0.22668833     0.15400
C1081       C  0.80565141  0.53710727  0.17316190    -0.17400
C1082       C  0.77932421  0.54336502  0.14994166    -0.19600
C1083       C  0.74672960  0.55053926  0.16133651     0.21100
C1084       C  0.74086607  0.55104468  0.19680431    -0.02500
C1085       C  0.76786282  0.54478667  0.22058635    -0.05600
C1086       C  0.80040794  0.53794989  0.20865707     0.21300
C1087       C  0.76234241  0.54542049  0.25616870     0.19500
C1088       C  0.72952111  0.55223712  0.26740510    -0.17100
C1089       C  0.70307976  0.55873991  0.24406072    -0.19300
C1090       C  0.70822167  0.55819492  0.20845941     0.21000
C1091       C  0.68171489  0.56526672  0.18449165    -0.32300
C1092       C  0.68715887  0.56510251  0.14854206     0.01700
C1093       C  0.72028655  0.55766774  0.13782562    -0.23600
C1094       C  0.82707685  0.53164494  0.23213363    -0.28200
C1095       C  0.82258968  0.53222029  0.26815307     0.07300
C1096       C  0.78951349  0.53923597  0.27965822    -0.26900
H1097       H  0.83031078  0.53159219  0.16322320     0.12100
H1098       H  0.78455112  0.54259215  0.12286034     0.13200
H1099       H  0.72428666  0.55299887  0.29447629     0.12300
H1100       H  0.67845408  0.56434643  0.25400917     0.11500
H1101       H  0.65727935  0.57241114  0.19392486     0.16900
H1102       H  0.72579020  0.55845249  0.11080130     0.12800
H1103       H  0.85162137  0.52569498  0.22214003     0.15700
H1104       H  0.78463371  0.53887533  0.30680316     0.15400
C1105       C  0.70781571  0.64169858  0.29307747    -0.17400
C1106       C  0.67753045  0.65101834  0.27787405    -0.19600
C1107       C  0.67564676  0.65632081  0.24256671     0.21100
C1108       C  0.70451628  0.65267290  0.22237052    -0.02500
C1109       C  0.73476240  0.64233664  0.23753791    -0.05600
C1110       C  0.73644914  0.63699206  0.27308850     0.21300
C1111       C  0.76322430  0.63715400  0.21709614     0.19500
C1112       C  0.76156016  0.64331173  0.18194838    -0.17100
C1113       C  0.73180036  0.65450954  0.16705766    -0.19300
C1114       C  0.70301306  0.65876212  0.18692281     0.21000
C1115       C  0.67242160  0.66757030  0.17179250    -0.32300
C1116       C  0.64318910  0.66818438  0.19134478     0.01700
C1117       C  0.64510080  0.66379124  0.22684761    -0.23600
C1118       C  0.76680161  0.62728108  0.28803485    -0.28200
C1119       C  0.79524828  0.62224560  0.26777670     0.07300
C1120       C  0.79309713  0.62663640  0.23226294    -0.26900
H1121       H  0.70873867  0.63773315  0.32039207     0.12100
H1122       H  0.65552626  0.65383836  0.29367729     0.13200
H1123       H  0.78335343  0.63967042  0.16600339     0.12300
H1124       H  0.73123297  0.65941132  0.13993503     0.11500
H1125       H  0.67088496  0.67147236  0.14451834     0.16900
H1126       H  0.62246602  0.66474428  0.24200290     0.12800
H1127       H  0.76841551  0.62411511  0.31544966     0.15700
H1128       H  0.81510341  0.62336128  0.21651630     0.15400
C1129       C  0.54317431  0.85385202  0.23727600    -0.17400
C1130       C  0.54237222  0.82778465  0.21328850    -0.19600
C1131       C  0.53281084  0.79524648  0.22299682     0.21100
C1132       C  0.52399512  0.78864498  0.25704657    -0.02500
C1133       C  0.52536959  0.81478610  0.28134716    -0.05600
C1134       C  0.53472900  0.84755983  0.27127109     0.21300
C1135       C  0.51746805  0.80817681  0.31567313     0.19500
C1136       C  0.50729129  0.77573317  0.32516314    -0.17100
C1137       C  0.50538160  0.74982578  0.30082810    -0.19300
C1138       C  0.51410270  0.75592820  0.26681833     0.21000
C1139       C  0.51447156  0.72971063  0.24267864    -0.32300
C1140       C  0.52492768  0.73603402  0.20919827     0.01700
C1141       C  0.53259137  0.76908530  0.19926916    -0.23600
C1142       C  0.53504671  0.87360168  0.29529023    -0.28200
C1143       C  0.52765186  0.86701893  0.32945182     0.07300
C1144       C  0.51990342  0.83421608  0.33981212    -0.26900
H1145       H  0.55034993  0.87890380  0.22926690     0.12100
H1146       H  0.54909841  0.83307950  0.18711921     0.13200
H1147       H  0.50082574  0.77041939  0.35137526     0.12300
H1148       H  0.49765995  0.72489432  0.30872378     0.11500
H1149       H  0.50833785  0.70426432  0.25035483     0.16900
H1150       H  0.54007293  0.77434550  0.17329387     0.12800
H1151       H  0.54189729  0.89889076  0.28762390     0.15700
H1152       H  0.51541546  0.82914635  0.36646661     0.15400
C1153       C  0.84380038  0.79699484  0.30625356    -0.17400
C1154       C  0.83857874  0.82949710  0.29481975    -0.19600
C1155       C  0.84537870  0.83743295  0.26086907     0.21100
C1156       C  0.85604507  0.81243052  0.23759936    -0.02500
C1157       C  0.86144789  0.77989084  0.24912736    -0.05600
C1158       C  0.85589641  0.77244917  0.28375938     0.21300
C1159       C  0.87370938  0.75518311  0.22642281     0.19500
C1160       C  0.87932604  0.76291327  0.19211977    -0.17100
C1161       C  0.87395854  0.79549155  0.18056762    -0.19300
C1162       C  0.86293487  0.82041292  0.20328267     0.21000
C1163       C  0.86036920  0.85360666  0.19291882    -0.32300
C1164       C  0.85197627  0.87829171  0.21683890     0.01700
C1165       C  0.84341067  0.87035728  0.25020159    -0.23600
C1166       C  0.86339368  0.74077341  0.29561992    -0.28200
C1167       C  0.87628810  0.71649969  0.27336625     0.07300
C1168       C  0.88100677  0.72343257  0.23875633    -0.26900
H1169       H  0.83925796  0.79127576  0.33281908     0.12100
H1170       H  0.83018453  0.84860337  0.31268314     0.13200
H1171       H  0.88873293  0.74405263  0.17453429     0.12300
H1172       H  0.87941652  0.80144848  0.15424272     0.11500
H1173       H  0.86693187  0.86059223  0.16709495     0.16900
H1174       H  0.83638540  0.89008573  0.26808320     0.12800
H1175       H  0.85942049  0.73519079  0.32233351     0.15700
H1176       H  0.89058419  0.70431477  0.22152352     0.15400
C1177       C  0.71847073  0.95544919  0.35733024    -0.17400
C1178       C  0.74691565  0.96122284  0.33772000    -0.19600
C1179       C  0.74398442  0.96487424  0.30225459     0.21100
C1180       C  0.71239741  0.96275362  0.28619049    -0.02500
C1181       C  0.68378556  0.95757150  0.30595049    -0.05600
C1182       C  0.68682787  0.95376016  0.34168970     0.21300
C1183       C  0.65205108  0.95681223  0.29000517     0.19500
C1184       C  0.64916215  0.96003403  0.25453011    -0.17100
C1185       C  0.67769968  0.96459872  0.23480247    -0.19300
C1186       C  0.70932731  0.96628197  0.25042045     0.21000
C1187       C  0.73792517  0.97166251  0.23092855    -0.32300
C1188       C  0.76928619  0.97386564  0.24691330     0.01700
C1189       C  0.77215214  0.97066826  0.28254126    -0.23600
C1190       C  0.65800963  0.94924285  0.36113971    -0.28200
C1191       C  0.62650688  0.95074793  0.34541407     0.07300
C1192       C  0.62361506  0.95374060  0.30993078    -0.26900
H1193       H  0.72112894  0.95292280  0.38473538     0.12100
H1194       H  0.77115989  0.96297990  0.35026190     0.13200
H1195       H  0.62481811  0.95934759  0.24211027     0.12300
H1196       H  0.67500720  0.96728687  0.20742860     0.11500
H1197       H  0.73579607  0.97413028  0.20346674     0.16900
H1198       H  0.79644692  0.97209512  0.29506038     0.12800
H1199       H  0.65995469  0.94580865  0.38846286     0.15700
H1200       H  0.59907679  0.95383592  0.29782857     0.15400
C1201       C  0.68520401  0.34553721  0.49143088    -0.17400
C1202       C  0.66325239  0.31820335  0.49772422    -0.19600
C1203       C  0.67539977  0.28532377  0.50259079     0.21100
C1204       C  0.71051493  0.28061190  0.50060986    -0.02500
C1205       C  0.73299927  0.30860968  0.49429542    -0.05600
C1206       C  0.72026428  0.34121037  0.48987585     0.21300
C1207       C  0.76820709  0.30413078  0.49333991     0.19500
C1208       C  0.78032866  0.27124753  0.49824175    -0.17100
C1209       C  0.75835459  0.24385248  0.50436563    -0.19300
C1210       C  0.72327661  0.24812351  0.50591034     0.21000
C1211       C  0.70111033  0.22076518  0.51378056    -0.32300
C1212       C  0.66556570  0.22453282  0.51659120     0.01700
C1213       C  0.65328578  0.25758605  0.51039560    -0.23600
C1214       C  0.74258512  0.36907054  0.48510273    -0.28200
C1215       C  0.77836925  0.36597408  0.48548252     0.07300
C1216       C  0.79057133  0.33250555  0.48897952    -0.26900
H1217       H  0.67461843  0.37037298  0.48818207     0.12100
H1218       H  0.63659008  0.32294969  0.49908591     0.13200
H1219       H  0.80706449  0.26668818  0.49788464     0.12300
H1220       H  0.76900410  0.21918514  0.50845394     0.11500
H1221       H  0.71186799  0.19635606  0.51902438     0.16900
H1222       H  0.62674085  0.26222084  0.51343157     0.12800
H1223       H  0.73176044  0.39383153  0.48217009     0.15700
H1224       H  0.81740322  0.32866406  0.49018268     0.15400
C1225       C  0.64893478  0.12412277  0.25981593    -0.17400
C1226       C  0.66672627  0.12827484  0.22957308    -0.19600
C1227       C  0.70130224  0.13477445  0.23068776     0.21100
C1228       C  0.71828449  0.13648625  0.26240088    -0.02500
C1229       C  0.70071446  0.13130090  0.29250803    -0.05600
C1230       C  0.66572912  0.12569484  0.29133160     0.21300
C1231       C  0.71819609  0.13201088  0.32386697     0.19500
C1232       C  0.75272585  0.13815775  0.32519229    -0.17100
C1233       C  0.77000228  0.14432307  0.29535160    -0.19300
C1234       C  0.75290875  0.14365549  0.26409238     0.21000
C1235       C  0.76994413  0.15027615  0.23444571    -0.32300
C1236       C  0.75341937  0.14825785  0.20301431     0.01700
C1237       C  0.71932839  0.13998710  0.20081410    -0.23600
C1238       C  0.64834803  0.12180056  0.32179210    -0.28200
C1239       C  0.66602907  0.12250162  0.35273506     0.07300
C1240       C  0.70079938  0.12714092  0.35361420    -0.26900
H1241       H  0.62216227  0.11947280  0.25858029     0.12100
H1242       H  0.65343418  0.12682514  0.20539815     0.13200
H1243       H  0.76621650  0.13863408  0.34929223     0.12300
H1244       H  0.79666108  0.14962311  0.29670609     0.11500
H1245       H  0.79639211  0.15666020  0.23579392     0.16900
H1246       H  0.70685121  0.13864215  0.17616575     0.12800
H1247       H  0.62137888  0.11823398  0.32151684     0.15700
H1248       H  0.71435392  0.12836541  0.37770050     0.15400
C1249       C  0.74548706  0.36252937  0.09917477    -0.17400
C1250       C  0.76430346  0.33347848  0.10233275    -0.19600
C1251       C  0.74918924  0.30198148  0.09704753     0.21100
C1252       C  0.71489562  0.29931611  0.08859706    -0.02500
C1253       C  0.69578098  0.32868322  0.08571427    -0.05600
C1254       C  0.71143695  0.36024721  0.09073538     0.21300
C1255       C  0.66119784  0.32659711  0.07784035     0.19500
C1256       C  0.64624110  0.29483040  0.07284025    -0.17100
C1257       C  0.66544557  0.26545941  0.07541006    -0.19300
C1258       C  0.69982291  0.26742194  0.08329917     0.21000
C1259       C  0.71943923  0.23827742  0.08667318    -0.32300
C1260       C  0.75344292  0.24123461  0.09605560     0.01700
C1261       C  0.76793685  0.27311998  0.10083165    -0.23600
C1262       C  0.69300658  0.38924875  0.08667452    -0.28200
C1263       C  0.65903580  0.38759742  0.07784201     0.07300
C1264       C  0.64261394  0.35641554  0.07465435    -0.26900
H1265       H  0.75757927  0.38677783  0.10313123     0.12100
H1266       H  0.79067926  0.33562302  0.10885274     0.13200
H1267       H  0.61981465  0.29272729  0.06659020     0.12300
H1268       H  0.65341629  0.24122824  0.07126470     0.11500
H1269       H  0.70810966  0.21358332  0.08337224     0.16900
H1270       H  0.79404410  0.27561834  0.10831490     0.12800
H1271       H  0.70528567  0.41351209  0.09030259     0.15700
H1272       H  0.61608687  0.35541370  0.06890343     0.15400
C1273       C  0.67761779  0.34104396  0.40671924    -0.17400
C1274       C  0.65777697  0.31250626  0.41230080    -0.19600
C1275       C  0.67262597  0.28067438  0.41479545     0.21100
C1276       C  0.70750773  0.27730262  0.41004729    -0.02500
C1277       C  0.72727657  0.30576839  0.40418727    -0.05600
C1278       C  0.71245471  0.33797909  0.40339227     0.21300
C1279       C  0.76215349  0.30205564  0.40048524     0.19500
C1280       C  0.77695138  0.27021514  0.40117170    -0.17100
C1281       C  0.75736896  0.24199803  0.40716767    -0.19300
C1282       C  0.72293412  0.24555052  0.41239841     0.21000
C1283       C  0.70388568  0.21786926  0.42096023    -0.32300
C1284       C  0.66961147  0.22122789  0.42724383     0.01700
C1285       C  0.65360600  0.25224625  0.42308389    -0.23600
C1286       C  0.73299643  0.36644480  0.40034733    -0.28200
C1287       C  0.76777750  0.36248418  0.39784917     0.07300
C1288       C  0.78199966  0.33032490  0.39725931    -0.26900
H1289       H  0.66585898  0.36556138  0.40594601     0.12100
H1290       H  0.63103610  0.31545127  0.41574842     0.13200
H1291       H  0.80374631  0.26726141  0.39799518     0.12300
H1292       H  0.76923846  0.21755474  0.40857276     0.11500
H1293       H  0.71593168  0.19351055  0.42291729     0.16900
H1294       H  0.62690042  0.25439057  0.42744312     0.12800
H1295       H  0.72213350  0.39141406  0.40031390     0.15700
H1296       H  0.80891582  0.32715640  0.39532548     0.15400
C1297       C  0.79749161  0.44623790  0.20544578    -0.17400
C1298       C  0.77738979  0.45419515  0.17734172    -0.19600
C1299       C  0.74342369  0.46197667  0.18180880     0.21100
C1300       C  0.72933210  0.46130987  0.21467221    -0.02500
C1301       C  0.74935289  0.45302958  0.24271291    -0.05600
C1302       C  0.78376353  0.44582745  0.23825598     0.21300
C1303       C  0.73497179  0.45243472  0.27536590     0.19500
C1304       C  0.70097177  0.45953198  0.27999279    -0.17100
C1305       C  0.68115568  0.46801237  0.25217952    -0.19300
C1306       C  0.69518034  0.46905783  0.21959156     0.21000
C1307       C  0.67539139  0.47719217  0.19173372    -0.32300
C1308       C  0.68904299  0.47711173  0.15898616     0.01700
C1309       C  0.72307131  0.46997415  0.15400223    -0.23600
C1310       C  0.80389758  0.43973854  0.26692805    -0.28200
C1311       C  0.78980540  0.44231957  0.29936059     0.07300
C1312       C  0.75515411  0.44631293  0.30322736    -0.26900
H1313       H  0.82380778  0.44091955  0.20160248     0.12100
H1314       H  0.78845536  0.45460270  0.15217858     0.13200
H1315       H  0.68989779  0.45914512  0.30517105     0.12300
H1316       H  0.65494038  0.47380012  0.25612890     0.11500
H1317       H  0.64908946  0.48287526  0.19545309     0.16900
H1318       H  0.73340704  0.46965644  0.12849134     0.12800
H1319       H  0.83034457  0.43465353  0.26419184     0.15700
H1320       H  0.74400664  0.44643306  0.32843175     0.15400
C1321       C  0.67116391  0.04455578  0.28264146    -0.17400
C1322       C  0.69631154  0.04896052  0.25756068    -0.19600
C1323       C  0.73056440  0.05187249  0.26648540     0.21100
C1324       C  0.73893199  0.04990299  0.30150584    -0.02500
C1325       C  0.71329886  0.04629343  0.32706028    -0.05600
C1326       C  0.67907894  0.04375941  0.31781932     0.21300
C1327       C  0.72205552  0.04535705  0.36194481     0.19500
C1328       C  0.75621070  0.04695366  0.37100998    -0.17100
C1329       C  0.78122315  0.05005149  0.34607549    -0.19300
C1330       C  0.77297279  0.05193442  0.31118705     0.21000
C1331       C  0.79822783  0.05672900  0.28621555    -0.32300
C1332       C  0.79083737  0.06059148  0.25088910     0.01700
C1333       C  0.75632200  0.05753863  0.24143698    -0.23600
C1334       C  0.65373704  0.04028874  0.34373980    -0.28200
C1335       C  0.66209495  0.03986580  0.37926103     0.07300
C1336       C  0.69685610  0.04240944  0.38728988    -0.26900
H1337       H  0.64526853  0.04242236  0.27442348     0.12100
H1338       H  0.68882538  0.05015259  0.23099185     0.13200
H1339       H  0.76368580  0.04587415  0.39760170     0.12300
H1340       H  0.80720287  0.05141689  0.35423292     0.11500
H1341       H  0.82405862  0.05909499  0.29470070     0.16900
H1342       H  0.74927783  0.06116778  0.21499949     0.12800
H1343       H  0.62777683  0.03688907  0.33616955     0.15700
H1344       H  0.70455719  0.04115026  0.41382006     0.15400
C1345       C  0.69137574  0.26029186  0.99024039    -0.17400
C1346       C  0.66263798  0.28041216  0.98510300    -0.19600
C1347       C  0.66444101  0.31589104  0.98679151     0.21100
C1348       C  0.69584016  0.33095565  0.99352048    -0.02500
C1349       C  0.72492291  0.31049498  0.99907666    -0.05600
C1350       C  0.72294051  0.27490388  0.99746158     0.21300
C1351       C  0.75580121  0.32576907  0.00725127     0.19500
C1352       C  0.75741583  0.36102129  0.01051228    -0.17100
C1353       C  0.72909041  0.38108405  0.00462275    -0.19300
C1354       C  0.69806585  0.36648649  0.99578598     0.21000
C1355       C  0.66913892  0.38677475  0.99073129    -0.32300
C1356       C  0.63710964  0.37225162  0.98512878     0.01700
C1357       C  0.63538317  0.33643832  0.98314566    -0.23600
C1358       C  0.75207702  0.25482642  0.00438408    -0.28200
C1359       C  0.78344642  0.27001516  0.01291817     0.07300
C1360       C  0.78445565  0.30580818  0.01318345    -0.26900
H1361       H  0.68872567  0.23314569  0.98910349     0.12100
H1362       H  0.63878710  0.26808603  0.98018114     0.13200
H1363       H  0.78076753  0.37321780  0.01780802     0.12300
H1364       H  0.73142759  0.40815117  0.00741343     0.11500
H1365       H  0.67123809  0.41387893  0.99334651     0.16900
H1366       H  0.61112974  0.32446093  0.97959452     0.12800
H1367       H  0.74989406  0.22763050  0.00469936     0.15700
H1368       H  0.80779340  0.31870213  0.01894854     0.15400
loop_ 
_geom_bond_atom_site_label_1 
_geom_bond_atom_site_label_2 
_geom_bond_distance 
_geom_bond_site_symmetry_2 
_ccdc_geom_bond_type 
N1            C5   1.374       .  A
N1            C2   1.389       .  A
N1          C349   1.448   1_554  S
C2            C3   1.383       .  A
C2         C1359   1.544       .  S
C3            C4   1.360       .  A
C3            H6   1.081       .  S
C4            C5   1.390       .  A
C4            H7   1.083       .  S
C5           C69   1.510       .  S
N8           C12   1.375   1_556  A
N8            C9   1.381       .  A
N8          C363   1.468       .  S
C9           C10   1.378   1_556  A
C9         C1356   1.534       .  S
C10          C11   1.375       .  A
C10          H13   1.081       .  S
C11          C12   1.392       .  A
C11          H14   1.083       .  S
C12          C53   1.521       .  S
N15          C19   1.375       .  A
N15          C16   1.398       .  A
N15         C112   1.455       .  S
C16          C17   1.378       .  A
C16        C1332   1.552       .  S
C17          C18   1.363       .  A
C17          H20   1.082       .  S
C18          C19   1.393       .  A
C18          H21   1.083       .  S
C19          C67   1.521       .  S
N22          C26   1.382       .  A
N22          C23   1.400       .  A
N22          C84   1.473       .  S
C23          C24   1.377       .  A
C23        C1335   1.553       .  S
C24          C25   1.364   1_545  A
C24          H27   1.082   1_545  S
C25          C26   1.393   1_565  A
C25          H28   1.083       .  S
C26         C123   1.528   1_545  S
O29         Ni37   1.917       .  S
O29          C39   1.290       .  A
O30         Ni37   1.854       .  S
O30          C40   1.273       .  A
O31         Ni37   1.920       .  S
O31          C41   1.282       .  A
O32         Ni37   1.957       .  S
O32          C42   1.288       .  A
O33         Ni38   1.932       .  S
O33          C42   1.289       .  A
O34         Ni38   1.862       .  S
O34          C41   1.274       .  A
O35         Ni38   1.923       .  S
O35          C40   1.282       .  A
O36         Ni38   1.959       .  S
O36          C39   1.289       .  A
Ni37        Ni38   2.389       .  S
C39          N85   1.477       .  S
C40        C1311   1.448       .  S
C41        C1287   1.450       .  S
C42         C159   1.535       .  S
O43         Ni51   1.930       .  S
O43          C53   1.289       .  A
O44         Ni51   1.886       .  S
O44          C54   1.278       .  A
O45         Ni51   1.940       .  S
O45          C55   1.284       .  A
O46         Ni51   1.920       .  S
O46          C56   1.280       .  A
O47         Ni52   1.881       .  S
O47          C56   1.277       .  A
O48         Ni52   1.923       .  S
O48          C55   1.288       .  A
O49         Ni52   1.902       .  S
O49          C54   1.278       .  A
O50         Ni52   1.940       .  S
O50          C53   1.284       .  A
Ni51        Ni52   2.392       .  S
C54        C1308   1.450       .  S
C55         N162   1.457       .  S
C56        C1263   1.452       .  S
O57         Ni65   1.984       .  S
O57          C67   1.296       .  A
O58         Ni65   1.922       .  S
O58          C68   1.281       .  A
O59         Ni65   1.963       .  S
O59          C69   1.291       .  A
O60         Ni65   1.894       .  S
O60          C70   1.276       .  A
O61         Ni66   1.879       .  S
O61          C70   1.277       .  A
O62         Ni66   1.881       .  S
O62          C69   1.274       .  A
O63         Ni66   1.886       .  S
O63          C68   1.278       .  A
O64         Ni66   1.883       .  S
O64          C67   1.275       .  A
Ni65        Ni66   2.389       .  S
C68        C1260   1.464       .  S
C70        C1236   1.438       .  S
O71         Ni79   1.901       .  S
O71          C81   1.283       .  A
O72         Ni79   1.868       .  S
O72          C82   1.275       .  A
O73         Ni79   1.879       .  S
O73          C83   1.277       .  A
O74         Ni79   1.906       .  S
O74          C84   1.283       .  A
O75         Ni80   1.966       .  S
O75          C84   1.293       .  A
O76         Ni80   1.903       .  S
O76          C83   1.277       .  A
O77         Ni80   1.897       .  S
O77          C82   1.277       .  A
O78         Ni80   1.965       .  S
O78          C81   1.293       .  A
Ni79        Ni80   2.393       .  S
C81          N92   1.471       .  S
C82        C1239   1.439       .  S
C83        C1284   1.446       .  S
N85          C89   1.372       .  A
N85          C86   1.404       .  A
C86          C87   1.385       .  A
C86        C1215   1.567       .  S
C87          C88   1.365       .  A
C87          H90   1.081       .  S
C88          C89   1.391       .  A
C88          H91   1.083       .  S
C89         C375   1.509       .  S
N92          C96   1.381       .  A
N92          C93   1.403       .  A
C93          C94   1.378       .  A
C93        C1212   1.564       .  S
C94          C95   1.369       .  A
C94          H97   1.081       .  S
C95          C96   1.389       .  A
C95          H98   1.083       .  S
C96         C389   1.526       .  S
O99        Ni107   1.898       .  S
O99         C109   1.284       .  A
O100       Ni107   1.868       .  S
O100        C110   1.272       .  A
O101       Ni107   1.880       .  S
O101        C111   1.277       .  A
O102       Ni107   1.901   1_545  S
O102        C112   1.283       .  A
O103       Ni108   1.945   1_545  S
O103        C112   1.287       .  A
O104       Ni108   1.877       .  S
O104        C111   1.272       .  A
O105       Ni108   1.920       .  S
O105        C110   1.284       .  A
O106       Ni108   1.975       .  S
O106        C109   1.294       .  A
Ni107      Ni108   2.393       .  S
C109        N169   1.480       .  S
C110       C1188   1.456       .  S
C111       C1164   1.422       .  S
O113       Ni121   1.967       .  S
O113        C123   1.291       .  A
O114       Ni121   1.907       .  S
O114        C124   1.281       .  A
O115       Ni121   1.954       .  S
O115        C125   1.289       .  A
O116       Ni121   1.886       .  S
O116        C126   1.277       .  A
O117       Ni122   1.911       .  S
O117        C126   1.280       .  A
O118       Ni122   1.910       .  S
O118        C125   1.283       .  A
O119       Ni122   1.905       .  S
O119        C124   1.278       .  A
O120       Ni122   1.909       .  S
O120        C123   1.283       .  A
Ni121      Ni122   2.390       .  S
C124       C1143   1.456       .  S
C125        C257   1.518       .  S
C126       C1191   1.450       .  S
O127       Ni135   1.937       .  S
O127        C137   1.291       .  A
O128       Ni135   1.901       .  S
O128        C138   1.279       .  A
O129       Ni135   1.879       .  S
O129        C139   1.274       .  A
O130       Ni135   1.923       .  S
O130        C140   1.288       .  A
O131       Ni136   1.950       .  S
O131        C140   1.287       .  A
O132       Ni136   1.876       .  S
O132        C139   1.276       .  A
O133       Ni136   1.912       .  S
O133        C138   1.281       .  A
O134       Ni136   1.970       .  S
O134        C137   1.293       .  A
Ni135      Ni136   2.389       .  S
C137        N176   1.489       .  S
C138       C1119   1.468       .  S
C139       C1167   1.439       .  S
C140        N155   1.470       .  S
O141       Ni149   1.959       .  S
O141        C151   1.286       .  A
O142       Ni149   1.934       .  S
O142        C152   1.285       .  A
O143       Ni149   1.930       .  S
O143        C153   1.288       .  A
O144       Ni149   1.881       .  S
O144        C154   1.276       .  A
O145       Ni150   1.924       .  S
O145        C154   1.283       .  A
O146       Ni150   1.946       .  S
O146        C153   1.284       .  A
O147       Ni150   1.888       .  S
O147        C152   1.276       .  A
O148       Ni150   1.911       .  S
O148        C151   1.288       .  A
Ni149      Ni150   2.379       .  S
C151        C264   1.527       .  S
C152       C1116   1.465       .  S
C153        C166   1.511       .  S
C154       C1140   1.466       .  S
N155        C159   1.383       .  A
N155        C156   1.392       .  A
C156        C157   1.378       .  A
C156       C1095   1.552       .  S
C157        C158   1.372       .  A
C157        H160   1.081       .  S
C158        C159   1.392       .  A
C158        H161   1.083       .  S
N162        C166   1.373       .  A
N162        C163   1.392       .  A
C163        C164   1.377       .  A
C163       C1092   1.546       .  S
C164        C165   1.370       .  A
C164        H167   1.080       .  S
C165        C166   1.387       .  A
C165        H168   1.083       .  S
N169        C173   1.378       .  A
N169        C170   1.391       .  A
C170        C171   1.369       .  A
C170       C1068   1.538       .  S
C171        C172   1.372       .  A
C171        H174   1.070       .  S
C172        C173   1.390       .  A
C172        H175   1.081   1_655  S
C173        C235   1.511       .  S
N176        C180   1.382   1_655  A
N176        C177   1.390       .  A
C177        C178   1.383   1_655  A
C177       C1071   1.547       .  S
C178        C179   1.369       .  A
C178        H181   1.081       .  S
C179        C180   1.392       .  A
C179        H182   1.083       .  S
C180        C221   1.531       .  S
N183        C187   1.371   1_554  A
N183        C184   1.387       .  A
N183        C238   1.467       .  S
C184        C185   1.376   1_554  A
C184       C1044   1.542       .  S
C185        C186   1.377       .  A
C185        H188   1.081       .  S
C186        C187   1.390       .  A
C186        H189   1.083       .  S
C187        C279   1.512       .  S
N190        C194   1.376       .  A
N190        C191   1.396       .  A
N190        C249   1.465       .  S
C191        C192   1.379       .  A
C191       C1047   1.544       .  S
C192        C193   1.364       .  A
C192        H195   1.083       .  S
C193        C194   1.391       .  A
C193        H196   1.083       .  S
C194        C308   1.510   1_554  S
O197       Ni205   1.905       .  S
O197        C207   1.286       .  A
O198       Ni205   1.888       .  S
O198        C208   1.279       .  A
O199       Ni205   1.899       .  S
O199        C209   1.279       .  A
O200       Ni205   1.877       .  S
O200        C210   1.273       .  A
O201       Ni206   1.954       .  S
O201        C210   1.287       .  A
O202       Ni206   1.971       .  S
O202        C209   1.294       .  A
O203       Ni206   1.926       .  S
O203        C208   1.279       .  A
O204       Ni206   1.957       .  S
O204        C207   1.287       .  A
Ni205      Ni206   2.385       .  S
C207        N323   1.462       .  S
C208        C999   1.460       .  S
C209        N253   1.459       .  S
C210       C1020   1.469       .  S
O211       Ni219   1.932       .  S
O211        C221   1.290       .  A
O212       Ni219   1.905       .  S
O212        C222   1.280       .  A
O213       Ni219   1.946       .  S
O213        C223   1.282       .  A
O214       Ni219   1.923       .  S
O214        C224   1.284       .  A
O215       Ni220   1.906       .  S
O215        C224   1.279       .  A
O216       Ni220   1.941       .  S
O216        C223   1.292       .  A
O217       Ni220   1.942       .  S
O217        C222   1.285       .  A
O218       Ni220   1.962       .  S
O218        C221   1.287       .  A
Ni219      Ni220   2.380       .  S
C222       C1023   1.484       .  S
C223        N330   1.466       .  S
C224        C975   1.481       .  S
O225       Ni233   1.931       .  S
O225        C235   1.281   1_455  A
O226       Ni233   1.893       .  S
O226        C236   1.280       .  A
O227       Ni233   1.893       .  S
O227        C237   1.279       .  A
O228       Ni233   1.910       .  S
O228        C238   1.284       .  A
O229       Ni234   1.956       .  S
O229        C238   1.291       .  A
O230       Ni234   1.942       .  S
O230        C237   1.284       .  A
O231       Ni234   1.897       .  S
O231        C236   1.274       .  A
O232       Ni234   1.953       .  S
O232        C235   1.292   1_455  A
Ni233      Ni234   2.390       .  S
C236        C948   1.439       .  S
C237        C972   1.471       .  S
O239       Ni247   1.963       .  S
O239        C249   1.292       .  A
O240       Ni247   1.915       .  S
O240        C250   1.279       .  A
O241       Ni247   1.977       .  S
O241        C251   1.294       .  A
O242       Ni247   1.919       .  S
O242        C252   1.280       .  A
O243       Ni248   1.870       .  S
O243        C252   1.276       .  A
O244       Ni248   1.897       .  S
O244        C251   1.280       .  A
O245       Ni248   1.895       .  S
O245        C250   1.280       .  A
O246       Ni248   1.902       .  S
O246        C249   1.282       .  A
Ni247      Ni248   2.388       .  S
C250        C996   1.466       .  S
C251        N260   1.467       .  S
C252        C951   1.454       .  S
N253        C257   1.376       .  A
N253        C254   1.385       .  A
C254        C255   1.374       .  A
C254        C924   1.528       .  S
C255        C256   1.368       .  A
C255        H258   1.082       .  S
C256        C257   1.394       .  A
C256        H259   1.083       .  S
N260        C264   1.387       .  A
N260        C261   1.389       .  A
C261        C262   1.384       .  A
C261        C927   1.544       .  S
C262        C263   1.365       .  A
C262        H265   1.081       .  S
C263        C264   1.390       .  A
C263        H266   1.084       .  S
O267       Ni275   1.941   1_545  S
O267        C277   1.285       .  A
O268       Ni275   1.915       .  S
O268        C278   1.278       .  A
O269       Ni275   1.945       .  S
O269        C279   1.291       .  A
O270       Ni275   1.904       .  S
O270        C280   1.280       .  A
O271       Ni276   1.890       .  S
O271        C280   1.277       .  A
O272       Ni276   1.931       .  S
O272        C279   1.281       .  A
O273       Ni276   1.901       .  S
O273        C278   1.279       .  A
O274       Ni276   1.922   1_545  S
O274        C277   1.288       .  A
Ni275      Ni276   2.391       .  S
C277        N407   1.458       .  S
C278        C903   1.454       .  S
C280        C879   1.455       .  S
O281       Ni289   1.914       .  S
O281        C291   1.284       .  A
O282       Ni289   1.909       .  S
O282        C292   1.281       .  A
O283       Ni289   1.884       .  S
O283        C293   1.276       .  A
O284       Ni289   1.904       .  S
O284        C294   1.279   1_565  A
O285       Ni290   1.978   1_545  S
O285        C294   1.294       .  A
O286       Ni290   1.908       .  S
O286        C293   1.279       .  A
O287       Ni290   1.888       .  S
O287        C292   1.277       .  A
O288       Ni290   1.974       .  S
O288        C291   1.294       .  A
Ni289      Ni290   2.389       .  S
C291        C327   1.536       .  S
C292        C876   1.454       .  S
C293        C852   1.444       .  S
C294        C418   1.534       .  S
O295       Ni303   1.946       .  S
O295        C305   1.285       .  A
O296       Ni303   1.940       .  S
O296        C306   1.286       .  A
O297       Ni303   1.868       .  S
O297        C307   1.274       .  A
O298       Ni303   1.905       .  S
O298        C308   1.282       .  A
O299       Ni304   1.957       .  S
O299        C308   1.287       .  A
O300       Ni304   1.951       .  S
O300        C307   1.288       .  A
O301       Ni304   1.874       .  S
O301        C306   1.275       .  A
O302       Ni304   1.917       .  S
O302        C305   1.284       .  A
Ni303      Ni304   2.381       .  S
C305        C495   1.509       .  S
C306        C900   1.469       .  S
C307        C828   1.474       .  S
O309       Ni317   1.921       .  S
O309        C319   1.288       .  A
O310       Ni317   1.864       .  S
O310        C320   1.274       .  A
O311       Ni317   1.935       .  S
O311        C321   1.284       .  A
O312       Ni317   1.961       .  S
O312        C322   1.288       .  A
O313       Ni318   1.918       .  S
O313        C322   1.286       .  A
O314       Ni318   1.880       .  S
O314        C321   1.277       .  A
O315       Ni318   1.921       .  S
O315        C320   1.282       .  A
O316       Ni318   1.936       .  S
O316        C319   1.282       .  A
Ni317      Ni318   2.385       .  S
C319        N498   1.453       .  S
C320        C855   1.457       .  S
C321        C831   1.463       .  S
C322        C334   1.530       .  S
N323        C327   1.381       .  A
N323        C324   1.375       .  A
C324        C325   1.375       .  A
C324        C804   1.524       .  S
C325        C326   1.375       .  A
C325        H328   1.082       .  S
C326        C327   1.397       .  A
C326        H329   1.083       .  S
N330        C334   1.383       .  A
N330        C331   1.378       .  A
C331        C332   1.383       .  A
C331        C807   1.529       .  S
C332        C333   1.368       .  A
C332        H335   1.081       .  S
C333        C334   1.394       .  A
C333        H336   1.083       .  S
O337       Ni345   1.927       .  S
O337        C347   1.280       .  A
O338       Ni345   1.904       .  S
O338        C348   1.276       .  A
O339       Ni345   1.921       .  S
O339        C349   1.291       .  A
O340       Ni345   1.896       .  S
O340        C350   1.280       .  A
O341       Ni346   1.893       .  S
O341        C350   1.276       .  A
O342       Ni346   1.923       .  S
O342        C349   1.277       .  A
O343       Ni346   1.900       .  S
O343        C348   1.282       .  A
O344       Ni346   1.927       .  S
O344        C347   1.289       .  A
Ni345      Ni346   2.394       .  S
C347        C425   1.510       .  S
C348        C759   1.458       .  S
C350        C780   1.445       .  S
O351       Ni359   1.933       .  S
O351        C361   1.281       .  A
O352       Ni359   1.893       .  S
O352        C362   1.279       .  A
O353       Ni359   1.928       .  S
O353        C363   1.287       .  A
O354       Ni359   1.898       .  S
O354        C364   1.281       .  A
O355       Ni360   1.940       .  S
O355        C364   1.282       .  A
O356       Ni360   1.960       .  S
O356        C363   1.290       .  A
O357       Ni360   1.921       .  S
O357        C362   1.279       .  A
O358       Ni360   1.955       .  S
O358        C361   1.296       .  A
Ni359      Ni360   2.385       .  S
C361        N393   1.476       .  S
C362        C756   1.459       .  S
C364        C735   1.474       .  S
O365       Ni373   1.896       .  S
O365        C375   1.277       .  A
O366       Ni373   1.874       .  S
O366        C376   1.274       .  A
O367       Ni373   1.898       .  S
O367        C377   1.285       .  A
O368       Ni373   1.904       .  S
O368        C378   1.279       .  A
O369       Ni374   1.886       .  S
O369        C378   1.277       .  A
O370       Ni374   1.950       .  S
O370        C377   1.287       .  A
O371       Ni374   1.912       .  S
O371        C376   1.282       .  A
O372       Ni374   1.957       .  S
O372        C375   1.289       .  A
Ni373      Ni374   2.392       .  S
C376        C783   1.445       .  S
C377        N428   1.457       .  S
C378        C708   1.449       .  S
O379       Ni387   1.953       .  S
O379        C389   1.286       .  A
O380       Ni387   1.921       .  S
O380        C390   1.282       .  A
O381       Ni387   1.886       .  S
O381        C391   1.276       .  A
O382       Ni387   1.935       .  S
O382        C392   1.292       .  A
O383       Ni388   1.935       .  S
O383        C392   1.280       .  A
O384       Ni388   1.907       .  S
O384        C391   1.280       .  A
O385       Ni388   1.894       .  S
O385        C390   1.280       .  A
O386       Ni388   1.928       .  S
O386        C389   1.288       .  A
Ni387      Ni388   2.389       .  S
C390        C732   1.474       .  S
C391        C711   1.447       .  S
C392        N400   1.458       .  S
N393        C397   1.387       .  A
N393        C394   1.383       .  A
C394        C395   1.384       .  A
C394        C684   1.539       .  S
C395        C396   1.368       .  A
C395        H398   1.078       .  S
C396        C397   1.393       .  A
C396        H399   1.084       .  S
C397        C448   1.525       .  S
N400        C404   1.383       .  A
N400        C401   1.385       .  A
C401        C402   1.381       .  A
C401        C687   1.540       .  S
C402        C403   1.363       .  A
C402        H405   1.081       .  S
C403        C404   1.391       .  A
C403        H406   1.083       .  S
C404        C489   1.527       .  S
N407        C411   1.375       .  A
N407        C408   1.389       .  A
C408        C409   1.378       .  A
C408        C663   1.547       .  S
C409        C410   1.372       .  A
C409        H412   1.081       .  S
C410        C411   1.390       .  A
C410        H413   1.083       .  S
C411        C459   1.517       .  S
N414        C418   1.382       .  A
N414        C415   1.397       .  A
N414        C487   1.457       .  S
C415        C416   1.378       .  A
C415        C660   1.553       .  S
C416        C417   1.364       .  A
C416        H419   1.082       .  S
C417        C418   1.390       .  A
C417        H420   1.083   1_545  S
N421        C425   1.375       .  A
N421        C422   1.392       .  A
N421        C462   1.459       .  S
C422        C423   1.382       .  A
C422        C639   1.551       .  S
C423        C424   1.371       .  A
C423        H426   1.082       .  S
C424        C425   1.387       .  A
C424        H427   1.083       .  S
N428        C432   1.378       .  A
N428        C429   1.401       .  A
C429        C430   1.388       .  A
C429        C636   1.563       .  S
C430        C431   1.360       .  A
C430        H433   1.081       .  S
C431        C432   1.384       .  A
C431        H434   1.083       .  S
C432        C476   1.504   1_655  S
O435       Ni443   1.896       .  S
O435        C445   1.282       .  A
O436       Ni443   1.895       .  S
O436        C446   1.278       .  A
O437       Ni443   1.872       .  S
O437        C447   1.273       .  A
O438       Ni443   1.889       .  S
O438        C448   1.282       .  A
O439       Ni444   1.969       .  S
O439        C448   1.290       .  A
O440       Ni444   1.930       .  S
O440        C447   1.285       .  A
O441       Ni444   1.896       .  S
O441        C446   1.277       .  A
O442       Ni444   1.947       .  S
O442        C445   1.287       .  A
Ni443      Ni444   2.387       .  S
C445        N491   1.452       .  S
C446        C615   1.445       .  S
C447        C588   1.465       .  S
O449       Ni457   1.938       .  S
O449        C459   1.284       .  A
O450       Ni457   1.906       .  S
O450        C460   1.281       .  A
O451       Ni457   1.870       .  S
O451        C461   1.276       .  A
O452       Ni457   1.914   1_655  S
O452        C462   1.285       .  A
O453       Ni458   1.953   1_655  S
O453        C462   1.288       .  A
O454       Ni458   1.932       .  S
O454        C461   1.282       .  A
O455       Ni458   1.881       .  S
O455        C460   1.275       .  A
O456       Ni458   1.929       .  S
O456        C459   1.288       .  A
Ni457      Ni458   2.391       .  S
C460        C567   1.454       .  S
C461        C540   1.459       .  S
O463       Ni471   1.932       .  S
O463        C473   1.283       .  A
O464       Ni471   1.917       .  S
O464        C474   1.283       .  A
O465       Ni471   1.878       .  S
O465        C475   1.274       .  A
O466       Ni471   1.900       .  S
O466        C476   1.280       .  A
O467       Ni472   1.943       .  S
O467        C476   1.284       .  A
O468       Ni472   1.927       .  S
O468        C475   1.285       .  A
O469       Ni472   1.868       .  S
O469        C474   1.273       .  A
O470       Ni472   1.919       .  S
O470        C473   1.285       .  A
Ni471      Ni472   2.389       .  S
C473        C502   1.495       .  S
C474        C564   1.446       .  S
C475        C591   1.452       .  S
O477       Ni485   1.935       .  S
O477        C487   1.280       .  A
O478       Ni485   1.917       .  S
O478        C488   1.283       .  A
O479       Ni485   1.911       .  S
O479        C489   1.284       .  A
O480       Ni485   1.870       .  S
O480        C490   1.276       .  A
O481       Ni486   1.931       .  S
O481        C490   1.282       .  A
O482       Ni486   1.968       .  S
O482        C489   1.289       .  A
O483       Ni486   1.886       .  S
O483        C488   1.276       .  A
O484       Ni486   1.936       .  S
O484        C487   1.292       .  A
Ni485      Ni486   2.381       .  S
C488        C612   1.461       .  S
C490        C543   1.462       .  S
N491        C495   1.371       .  A
N491        C492   1.382       .  A
C492        C493   1.378       .  A
C492        C516   1.532       .  S
C493        C494   1.370       .  A
C493        H496   1.081       .  S
C494        C495   1.391       .  A
C494        H497   1.083       .  S
N498        C502   1.366       .  A
N498        C499   1.382       .  A
C499        C500   1.375       .  A
C499        C519   1.525       .  S
C500        C501   1.369       .  A
C500        H503   1.082       .  S
C501        C502   1.389       .  A
C501        H504   1.083       .  S
C505        C506   1.405       .  A
C505        C510   1.405       .  A
C505        H521   1.083       .  S
C506        C507   1.406       .  A
C506        H522   1.083       .  S
C507        C517   1.417       .  A
C507        C508   1.410       .  A
C508        C514   1.413       .  A
C508        C509   1.434       .  A
C509        C511   1.412       .  A
C509        C510   1.411       .  A
C510        C518   1.418       .  A
C511        C520   1.431       .  A
C511        C512   1.410       .  A
C512        C513   1.414       .  A
C512        H523   1.083       .  S
C513        C514   1.410       .  A
C513        H524   1.083       .  S
C514        C515   1.433       .  A
C515        C516   1.421       .  A
C515        H525   1.083       .  S
C516        C517   1.416       .  A
C517        H526   1.083       .  S
C518        C519   1.414       .  A
C518        H527   1.084       .  S
C519        C520   1.422       .  A
C520        H528   1.083       .  S
C529        C530   1.405       .  A
C529        C534   1.406       .  A
C529        H545   1.083       .  S
C530        C531   1.405       .  A
C530        H546   1.083       .  S
C531        C541   1.410       .  A
C531        C532   1.413       .  A
C532        C538   1.408       .  A
C532        C533   1.401       .  A
C533        C535   1.408       .  A
C533        C534   1.413       .  A
C534        C542   1.410       .  A
C535        C544   1.377       .  A
C535        C536   1.398       .  A
C536        C537   1.383       .  A
C536        H547   1.084       .  S
C537        C538   1.397       .  A
C537        H548   1.084       .  S
C538        C539   1.376       .  A
C539        C540   1.398       .  A
C539        H549   1.086       .  S
C540        C541   1.404       .  A
C541        H550   1.082       .  S
C542        C543   1.407       .  A
C542        H551   1.084       .  S
C543        C544   1.399       .  A
C544        H552   1.085       .  S
C553        C554   1.392       .  A
C553        C558   1.400       .  A
C553        H569   1.084       .  S
C554        C555   1.401       .  A
C554        H570   1.084       .  S
C555        C565   1.387       .  A
C555        C556   1.409       .  A
C556        C562   1.414       .  A
C556        C557   1.398       .  A
C557        C559   1.409       .  A
C557        C558   1.412       .  A
C558        C566   1.390       .  A
C559        C568   1.389       .  A
C559        C560   1.402       .  A
C560        C561   1.393       .  A
C560        H571   1.084       .  S
C561        C562   1.400       .  A
C561        H572   1.084       .  S
C562        C563   1.392       .  A
C563        C564   1.397       .  A
C563        H573   1.085       .  S
C564        C565   1.402       .  A
C565        H574   1.085       .  S
C566        C567   1.400       .  A
C566        H575   1.084       .  S
C567        C568   1.403       .  A
C568        H576   1.084       .  S
C577        C578   1.397       .  A
C577        C582   1.404       .  A
C577        H593   1.084       .  S
C578        C579   1.402       .  A
C578        H594   1.084       .  S
C579        C589   1.400       .  A
C579        C580   1.414       .  A
C580        C586   1.407       .  A
C580        C581   1.403       .  A
C581        C583   1.415       .  A
C581        C582   1.409       .  A
C582        C590   1.395       .  A
C583        C592   1.395       .  A
C583        C584   1.399       .  A
C584        C585   1.392       .  A
C584        H595   1.083       .  S
C585        C586   1.402       .  A
C585        H596   1.084       .  S
C586        C587   1.388       .  A
C587        C588   1.407       .  A
C587        H597   1.084       .  S
C588        C589   1.401       .  A
C589        H598   1.084       .  S
C590        C591   1.405       .  A
C590        H599   1.085       .  S
C591        C592   1.393       .  A
C592        H600   1.081       .  S
C601        C602   1.393       .  A
C601        C606   1.401       .  A
C601        H617   1.083       .  S
C602        C603   1.401       .  A
C602        H618   1.084       .  S
C603        C613   1.393       .  A
C603        C604   1.412       .  A
C604        C610   1.409       .  A
C604        C605   1.400       .  A
C605        C607   1.413       .  A
C605        C606   1.410       .  A
C606        C614   1.390       .  A
C607        C616   1.395       .  A
C607        C608   1.401       .  A
C608        C609   1.395       .  A
C608        H619   1.083       .  S
C609        C610   1.402       .  A
C609        H620   1.084       .  S
C610        C611   1.392       .  A
C611        C612   1.405       .  A
C611        H621   1.084       .  S
C612        C613   1.400       .  A
C613        H622   1.084       .  S
C614        C615   1.399       .  A
C614        H623   1.085       .  S
C615        C616   1.398       .  A
C616        H624   1.085       .  S
C625        C626   1.409       .  A
C625        C630   1.406       .  A
C625        H641   1.083       .  S
C626        C627   1.410       .  A
C626        H642   1.083       .  S
C627        C637   1.419       .  A
C627        C628   1.402       .  A
C628        C634   1.418       .  A
C628        C629   1.441       .  A
C629        C631   1.405       .  A
C629        C630   1.417       .  A
C630        C638   1.434       .  A
C631        C640   1.429       .  A
C631        C632   1.412       .  A
C632        C633   1.416       .  A
C632        H643   1.083       .  S
C633        C634   1.409       .  A
C633        H644   1.083       .  S
C634        C635   1.444       .  A
C635        C636   1.424       .  A
C635        H645   1.082       .  S
C636        C637   1.432       .  A
C637        H646   1.080       .  S
C638        C639   1.418       .  A
C638        H647   1.083       .  S
C639        C640   1.431       .  A
C640        H648   1.082       .  S
C649        C650   1.419       .  A
C649        C654   1.411       .  A
C649        H665   1.083       .  S
C650        C651   1.411       .  A
C650        H666   1.083       .  S
C651        C661   1.443       .  A
C651        C652   1.414       .  A
C652        C658   1.409       .  A
C652        C653   1.443       .  A
C653        C655   1.411       .  A
C653        C654   1.412       .  A
C654        C662   1.440       .  A
C655        C664   1.425       .  A
C655        C656   1.407       .  A
C656        C657   1.408       .  A
C656        H667   1.083       .  S
C657        C658   1.408       .  A
C657        H668   1.083       .  S
C658        C659   1.424       .  A
C659        C660   1.425       .  A
C659        H669   1.084       .  S
C660        C661   1.427       .  A
C661        H670   1.083       .  S
C662        C663   1.426       .  A
C662        H671   1.083       .  S
C663        C664   1.421       .  A
C664        H672   1.084       .  S
C673        C674   1.417       .  A
C673        C678   1.411       .  A
C673        H689   1.083       .  S
C674        C675   1.411       .  A
C674        H690   1.083       .  S
C675        C685   1.437       .  A
C675        C676   1.412       .  A
C676        C682   1.408       .  A
C676        C677   1.434       .  A
C677        C679   1.408       .  A
C677        C678   1.413       .  A
C678        C686   1.438       .  A
C679        C688   1.411       .  A
C679        C680   1.404       .  A
C680        C681   1.401       .  A
C680        H691   1.083       .  S
C681        C682   1.404       .  A
C681        H692   1.083       .  S
C682        C683   1.411       .  A
C683        C684   1.418       .  A
C683        H693   1.083       .  S
C684        C685   1.424       .  A
C685        H694   1.081       .  S
C686        C687   1.424       .  A
C686        H695   1.083       .  S
C687        C688   1.418       .  A
C688        H696   1.082       .  S
C697        C698   1.395       .  A
C697        C702   1.402       .  A
C697        H713   1.083       .  S
C698        C699   1.401       .  A
C698        H714   1.084       .  S
C699        C709   1.394       .  A
C699        C700   1.412       .  A
C700        C706   1.408       .  A
C700        C701   1.397       .  A
C701        C703   1.412       .  A
C701        C702   1.409       .  A
C702        C710   1.391       .  A
C703        C712   1.390       .  A
C703        C704   1.400       .  A
C704        C705   1.392       .  A
C704        H715   1.083       .  S
C705        C706   1.401       .  A
C705        H716   1.084       .  S
C706        C707   1.386       .  A
C707        C708   1.402       .  A
C707        H717   1.085       .  S
C708        C709   1.399       .  A
C709        H718   1.083       .  S
C710        C711   1.401       .  A
C710        H719   1.085       .  S
C711        C712   1.395       .  A
C712        H720   1.082       .  S
C721        C722   1.393       .  A
C721        C726   1.400       .  A
C721        H737   1.083       .  S
C722        C723   1.402       .  A
C722        H738   1.083       .  S
C723        C733   1.389       .  A
C723        C724   1.407       .  A
C724        C730   1.411       .  A
C724        C725   1.404       .  A
C725        C727   1.410       .  A
C725        C726   1.409       .  A
C726        C734   1.393       .  A
C727        C736   1.409       .  A
C727        C728   1.404       .  A
C728        C729   1.405       .  A
C728        H739   1.084       .  S
C729        C730   1.406       .  A
C729        H740   1.083       .  S
C730        C731   1.409       .  A
C731        C732   1.409       .  A
C731        H741   1.083       .  S
C732        C733   1.406       .  A
C733        H742   1.084       .  S
C734        C735   1.399       .  A
C734        H743   1.075       .  S
C735        C736   1.403       .  A
C736        H744   1.076       .  S
C745        C746   1.401       .  A
C745        C750   1.404       .  A
C745        H761   1.083       .  S
C746        C747   1.403       .  A
C746        H762   1.083       .  S
C747        C757   1.406       .  A
C747        C748   1.413       .  A
C748        C754   1.408       .  A
C748        C749   1.402       .  A
C749        C751   1.409       .  A
C749        C750   1.411       .  A
C750        C758   1.405       .  A
C751        C760   1.386       .  A
C751        C752   1.400       .  A
C752        C753   1.390       .  A
C752        H763   1.084       .  S
C753        C754   1.401       .  A
C753        H764   1.084       .  S
C754        C755   1.385       .  A
C755        C756   1.400       .  A
C755        H765   1.078       .  S
C756        C757   1.403       .  A
C757        H766   1.084       .  S
C758        C759   1.405       .  A
C758        H767   1.083       .  S
C759        C760   1.401       .  A
C760        H768   1.085       .  S
C769        C770   1.390       .  A
C769        C774   1.400       .  A
C769        H785   1.084       .  S
C770        C771   1.399       .  A
C770        H786   1.084       .  S
C771        C781   1.387       .  A
C771        C772   1.411       .  A
C772        C778   1.410       .  A
C772        C773   1.397       .  A
C773        C775   1.413       .  A
C773        C774   1.409       .  A
C774        C782   1.384       .  A
C775        C784   1.396       .  A
C775        C776   1.401       .  A
C776        C777   1.395       .  A
C776        H787   1.083       .  S
C777        C778   1.402       .  A
C777        H788   1.083       .  S
C778        C779   1.392       .  A
C779        C780   1.400       .  A
C779        H789   1.083       .  S
C780        C781   1.398       .  A
C781        H790   1.085       .  S
C782        C783   1.399       .  A
C782        H791   1.085       .  S
C783        C784   1.398       .  A
C784        H792   1.084       .  S
C793        C794   1.410       .  A
C793        C798   1.407       .  A
C793        H809   1.083       .  S
C794        C795   1.408       .  A
C794        H810   1.083       .  S
C795        C805   1.422       .  A
C795        C796   1.409       .  A
C796        C802   1.414       .  A
C796        C797   1.431       .  A
C797        C799   1.406       .  A
C797        C798   1.414       .  A
C798        C806   1.428       .  A
C799        C808   1.413       .  A
C799        C800   1.405       .  A
C800        C801   1.405       .  A
C800        H811   1.083       .  S
C801        C802   1.404       .  A
C801        H812   1.083       .  S
C802        C803   1.421       .  A
C803        C804   1.413       .  A
C803        H813   1.084       .  S
C804        C805   1.418       .  A
C805        H814   1.084       .  S
C806        C807   1.416       .  A
C806        H815   1.083       .  S
C807        C808   1.419       .  A
C808        H816   1.082       .  S
C817        C818   1.405       .  A
C817        C822   1.405       .  A
C817        H833   1.084       .  S
C818        C819   1.405       .  A
C818        H834   1.083       .  S
C819        C829   1.411       .  A
C819        C820   1.413       .  A
C820        C826   1.407       .  A
C820        C821   1.406       .  A
C821        C823   1.410       .  A
C821        C822   1.413       .  A
C822        C830   1.410       .  A
C823        C832   1.384       .  A
C823        C824   1.398       .  A
C824        C825   1.387       .  A
C824        H835   1.084       .  S
C825        C826   1.400       .  A
C825        H836   1.084       .  S
C826        C827   1.383       .  A
C827        C828   1.405       .  A
C827        H837   1.085       .  S
C828        C829   1.406       .  A
C829        H838   1.082       .  S
C830        C831   1.406       .  A
C830        H839   1.084       .  S
C831        C832   1.399       .  A
C832        H840   1.086       .  S
C841        C842   1.386       .  A
C841        C846   1.399       .  A
C841        H857   1.084       .  S
C842        C843   1.398       .  A
C842        H858   1.083       .  S
C843        C853   1.381       .  A
C843        C844   1.410       .  A
C844        C850   1.411       .  A
C844        C845   1.397       .  A
C845        C847   1.413       .  A
C845        C846   1.407       .  A
C846        C854   1.378       .  A
C847        C856   1.402       .  A
C847        C848   1.404       .  A
C848        C849   1.400       .  A
C848        H859   1.083       .  S
C849        C850   1.404       .  A
C849        H860   1.083       .  S
C850        C851   1.400       .  A
C851        C852   1.402       .  A
C851        H861   1.084       .  S
C852        C853   1.393       .  A
C853        H862   1.081       .  S
C854        C855   1.403       .  A
C854        H863   1.084       .  S
C855        C856   1.404       .  A
C856        H864   1.084       .  S
C865        C866   1.393       .  A
C865        C870   1.402       .  A
C865        H881   1.083       .  S
C866        C867   1.401       .  A
C866        H882   1.084       .  S
C867        C877   1.392       .  A
C867        C868   1.412       .  A
C868        C874   1.410       .  A
C868        C869   1.399       .  A
C869        C871   1.412       .  A
C869        C870   1.409       .  A
C870        C878   1.390       .  A
C871        C880   1.393       .  A
C871        C872   1.401       .  A
C872        C873   1.393       .  A
C872        H883   1.084       .  S
C873        C874   1.401       .  A
C873        H884   1.083       .  S
C874        C875   1.390       .  A
C875        C876   1.402       .  A
C875        H885   1.084       .  S
C876        C877   1.399       .  A
C877        H886   1.084       .  S
C878        C879   1.403       .  A
C878        H887   1.084       .  S
C879        C880   1.400       .  A
C880        H888   1.084       .  S
C889        C890   1.401       .  A
C889        C894   1.404       .  A
C889        H905   1.085       .  S
C890        C891   1.404       .  A
C890        H906   1.083       .  S
C891        C901   1.409       .  A
C891        C892   1.416       .  A
C892        C898   1.406       .  A
C892        C893   1.405       .  A
C893        C895   1.414       .  A
C893        C894   1.411       .  A
C894        C902   1.401       .  A
C895        C904   1.392       .  A
C895        C896   1.399       .  A
C896        C897   1.391       .  A
C896        H907   1.084       .  S
C897        C898   1.402       .  A
C897        H908   1.084       .  S
C898        C899   1.385       .  A
C899        C900   1.406       .  A
C899        H909   1.085       .  S
C900        C901   1.404       .  A
C901        H910   1.084       .  S
C902        C903   1.397       .  A
C902        H911   1.079       .  S
C903        C904   1.397       .  A
C904        H912   1.086       .  S
C913        C914   1.404       .  A
C913        C918   1.406       .  A
C913        H929   1.084       .  S
C914        C915   1.405       .  A
C914        H930   1.083       .  S
C915        C925   1.418       .  A
C915        C916   1.411       .  A
C916        C922   1.410       .  A
C916        C917   1.435       .  A
C917        C919   1.413       .  A
C917        C918   1.406       .  A
C918        C926   1.413       .  A
C919        C928   1.437       .  A
C919        C920   1.409       .  A
C920        C921   1.415       .  A
C920        H931   1.083       .  S
C921        C922   1.409       .  A
C921        H932   1.083       .  S
C922        C923   1.432       .  A
C923        C924   1.422       .  A
C923        H933   1.083       .  S
C924        C925   1.415       .  A
C925        H934   1.084       .  S
C926        C927   1.422       .  A
C926        H935   1.081       .  S
C927        C928   1.423       .  A
C928        H936   1.083       .  S
C937        C938   1.402       .  A
C937        C942   1.404       .  A
C937        H953   1.084       .  S
C938        C939   1.405       .  A
C938        H954   1.083       .  S
C939        C949   1.403       .  A
C939        C940   1.412       .  A
C940        C946   1.411       .  A
C940        C941   1.398       .  A
C941        C943   1.406       .  A
C941        C942   1.414       .  A
C942        C950   1.406       .  A
C943        C952   1.372       .  A
C943        C944   1.397       .  A
C944        C945   1.380       .  A
C944        H955   1.083       .  S
C945        C946   1.396       .  A
C945        H956   1.080       .  S
C946        C947   1.376       .  A
C947        C948   1.389       .  A
C947        H957   1.079       .  S
C948        C949   1.403       .  A
C949        H958   1.085       .  S
C950        C951   1.404       .  A
C950        H959   1.084       .  S
C951        C952   1.399       .  A
C952        H960   1.084       .  S
C961        C962   1.397       .  A
C961        C966   1.403       .  A
C961        H977   1.084       .  S
C962        C963   1.401       .  A
C962        H978   1.079       .  S
C963        C973   1.400       .  A
C963        C964   1.408       .  A
C964        C970   1.411       .  A
C964        C965   1.410       .  A
C965        C967   1.409       .  A
C965        C966   1.411       .  A
C966        C974   1.400       .  A
C967        C976   1.404       .  A
C967        C968   1.405       .  A
C968        C969   1.401       .  A
C968        H979   1.083   1_455  S
C969        C970   1.404       .  A
C969        H980   1.083       .  S
C970        C971   1.410       .  A
C971        C972   1.402       .  A
C971        H981   1.080       .  S
C972        C973   1.401       .  A
C973        H982   1.079       .  S
C974        C975   1.407       .  A
C974        H983   1.084       .  S
C975        C976   1.410       .  A
C976        H984   1.084       .  S
C985        C986   1.390       .  A
C985        C990   1.400       .  A
C985       H1001   1.084       .  S
C986        C987   1.400       .  A
C986       H1002   1.082       .  S
C987        C997   1.385       .  A
C987        C988   1.406       .  A
C988        C994   1.413       .  A
C988        C989   1.404       .  A
C989        C991   1.411       .  A
C989        C990   1.412       .  A
C990        C998   1.389       .  A
C991       C1000   1.407       .  A
C991        C992   1.405       .  A
C992        C993   1.403       .  A
C992       H1003   1.083       .  S
C993        C994   1.405       .  A
C993       H1004   1.084       .  S
C994        C995   1.409       .  A
C995        C996   1.405       .  A
C995       H1005   1.084       .  S
C996        C997   1.403       .  A
C997       H1006   1.083       .  S
C998        C999   1.399       .  A
C998       H1007   1.085       .  S
C999       C1000   1.406       .  A
C1000      H1008   1.084       .  S
C1009      C1010   1.398       .  A
C1009      C1014   1.403       .  A
C1009      H1025   1.084       .  S
C1010      C1011   1.404       .  A
C1010      H1026   1.083       .  S
C1011      C1021   1.400       .  A
C1011      C1012   1.409       .  A
C1012      C1018   1.411       .  A
C1012      C1013   1.412       .  A
C1013      C1015   1.412       .  A
C1013      C1014   1.408       .  A
C1014      C1022   1.398       .  A
C1015      C1024   1.414       .  A
C1015      C1016   1.405       .  A
C1016      C1017   1.404       .  A
C1016      H1027   1.082       .  S
C1017      C1018   1.404       .  A
C1017      H1028   1.083       .  S
C1018      C1019   1.410       .  A
C1019      C1020   1.407       .  A
C1019      H1029   1.084       .  S
C1020      C1021   1.407       .  A
C1021      H1030   1.084       .  S
C1022      C1023   1.409       .  A
C1022      H1031   1.085       .  S
C1023      C1024   1.408       .  A
C1024      H1032   1.083       .  S
C1033      C1034   1.411       .  A
C1033      C1038   1.410       .  A
C1033      H1049   1.083       .  S
C1034      C1035   1.408       .  A
C1034      H1050   1.083       .  S
C1035      C1045   1.432       .  A
C1035      C1036   1.414       .  A
C1036      C1042   1.409       .  A
C1036      C1037   1.441       .  A
C1037      C1039   1.416       .  A
C1037      C1038   1.408       .  A
C1038      C1046   1.425       .  A
C1039      C1048   1.437       .  A
C1039      C1040   1.409   1_554  A
C1040      C1041   1.414       .  A
C1040      H1051   1.083       .  S
C1041      C1042   1.410   1_556  A
C1041      H1052   1.083       .  S
C1042      C1043   1.430       .  A
C1043      C1044   1.423       .  A
C1043      H1053   1.080   1_554  S
C1044      C1045   1.420       .  A
C1045      H1054   1.083       .  S
C1046      C1047   1.425       .  A
C1046      H1055   1.084       .  S
C1047      C1048   1.422       .  A
C1048      H1056   1.083   1_554  S
C1057      C1058   1.413       .  A
C1057      C1062   1.409       .  A
C1057      H1073   1.083       .  S
C1058      C1059   1.410       .  A
C1058      H1074   1.083       .  S
C1059      C1069   1.427       .  A
C1059      C1060   1.407       .  A
C1060      C1066   1.416       .  A
C1060      C1061   1.440       .  A
C1061      C1063   1.406       .  A
C1061      C1062   1.416       .  A
C1062      C1070   1.437       .  A
C1063      C1072   1.422       .  A
C1063      C1064   1.409       .  A
C1064      C1065   1.410       .  A
C1064      H1075   1.083       .  S
C1065      C1066   1.407       .  A
C1065      H1076   1.083       .  S
C1066      C1067   1.432       .  A
C1067      C1068   1.418       .  A
C1067      H1077   1.083       .  S
C1068      C1069   1.426       .  A
C1069      H1078   1.084       .  S
C1070      C1071   1.422       .  A
C1070      H1079   1.083       .  S
C1071      C1072   1.425       .  A
C1072      H1080   1.083       .  S
C1081      C1082   1.409       .  A
C1081      C1086   1.408       .  A
C1081      H1097   1.083       .  S
C1082      C1083   1.407       .  A
C1082      H1098   1.083       .  S
C1083      C1093   1.427       .  A
C1083      C1084   1.411       .  A
C1084      C1090   1.412       .  A
C1084      C1085   1.443       .  A
C1085      C1087   1.413       .  A
C1085      C1086   1.410       .  A
C1086      C1094   1.426       .  A
C1087      C1096   1.441       .  A
C1087      C1088   1.411       .  A
C1088      C1089   1.418       .  A
C1088      H1099   1.083       .  S
C1089      C1090   1.411       .  A
C1089      H1100   1.083       .  S
C1090      C1091   1.440       .  A
C1091      C1092   1.427       .  A
C1091      H1101   1.083       .  S
C1092      C1093   1.421       .  A
C1093      H1102   1.084       .  S
C1094      C1095   1.424       .  A
C1094      H1103   1.084       .  S
C1095      C1096   1.425       .  A
C1096      H1104   1.083       .  S
C1105      C1106   1.397       .  A
C1105      C1110   1.402       .  A
C1105      H1121   1.084       .  S
C1106      C1107   1.403       .  A
C1106      H1122   1.083       .  S
C1107      C1117   1.396       .  A
C1107      C1108   1.409       .  A
C1108      C1114   1.413       .  A
C1108      C1109   1.406       .  A
C1109      C1111   1.409       .  A
C1109      C1110   1.412       .  A
C1110      C1118   1.399       .  A
C1111      C1120   1.396       .  A
C1111      C1112   1.402       .  A
C1112      C1113   1.396       .  A
C1112      H1123   1.084       .  S
C1113      C1114   1.402       .  A
C1113      H1124   1.082       .  S
C1114      C1115   1.401       .  A
C1115      C1116   1.400       .  A
C1115      H1125   1.083       .  S
C1116      C1117   1.405       .  A
C1117      H1126   1.085       .  S
C1118      C1119   1.404       .  A
C1118      H1127   1.084       .  S
C1119      C1120   1.406       .  A
C1120      H1128   1.084       .  S
C1129      C1130   1.392       .  A
C1129      C1134   1.401       .  A
C1129      H1145   1.083       .  S
C1130      C1131   1.402       .  A
C1130      H1146   1.084       .  S
C1131      C1141   1.388       .  A
C1131      C1132   1.409       .  A
C1132      C1138   1.413       .  A
C1132      C1133   1.403       .  A
C1133      C1135   1.410       .  A
C1133      C1134   1.412       .  A
C1134      C1142   1.392       .  A
C1135      C1144   1.398       .  A
C1135      C1136   1.403       .  A
C1136      C1137   1.398       .  A
C1136      H1147   1.083       .  S
C1137      C1138   1.402       .  A
C1137      H1148   1.084       .  S
C1138      C1139   1.401       .  A
C1139      C1140   1.404       .  A
C1139      H1149   1.084       .  S
C1140      C1141   1.405       .  A
C1141      H1150   1.084       .  S
C1142      C1143   1.399       .  A
C1142      H1151   1.085       .  S
C1143      C1144   1.401       .  A
C1144      H1152   1.081       .  S
C1153      C1154   1.386       .  A
C1153      C1158   1.399       .  A
C1153      H1169   1.084       .  S
C1154      C1155   1.398       .  A
C1154      H1170   1.084       .  S
C1155      C1165   1.379       .  A
C1155      C1156   1.412       .  A
C1156      C1162   1.413       .  A
C1156      C1157   1.390       .  A
C1157      C1159   1.410       .  A
C1157      C1158   1.410       .  A
C1158      C1166   1.378       .  A
C1159      C1168   1.386       .  A
C1159      C1160   1.401       .  A
C1160      C1161   1.392       .  A
C1160      H1171   1.084       .  S
C1161      C1162   1.400       .  A
C1161      H1172   1.084       .  S
C1162      C1163   1.387       .  A
C1163      C1164   1.394       .  A
C1163      H1173   1.085       .  S
C1164      C1165   1.392       .  A
C1165      H1174   1.086       .  S
C1166      C1167   1.397       .  A
C1166      H1175   1.084       .  S
C1167      C1168   1.400       .  A
C1168      H1176   1.084       .  S
C1177      C1178   1.394       .  A
C1177      C1182   1.400       .  A
C1177      H1193   1.084       .  S
C1178      C1179   1.403       .  A
C1178      H1194   1.083       .  S
C1179      C1189   1.387       .  A
C1179      C1180   1.406       .  A
C1180      C1186   1.414       .  A
C1180      C1181   1.399       .  A
C1181      C1183   1.408       .  A
C1181      C1182   1.414       .  A
C1182      C1190   1.395       .  A
C1183      C1192   1.387       .  A
C1183      C1184   1.401       .  A
C1184      C1185   1.392       .  A
C1184      H1195   1.083       .  S
C1185      C1186   1.400       .  A
C1185      H1196   1.084       .  S
C1186      C1187   1.394       .  A
C1187      C1188   1.397       .  A
C1187      H1197   1.084       .  S
C1188      C1189   1.407       .  A
C1189      H1198   1.084       .  S
C1190      C1191   1.398       .  A
C1190      H1199   1.083       .  S
C1191      C1192   1.401       .  A
C1192      H1200   1.085       .  S
C1201      C1202   1.415       .  A
C1201      C1206   1.412       .  A
C1201      H1217   1.083       .  S
C1202      C1203   1.409       .  A
C1202      H1218   1.083       .  S
C1203      C1213   1.444       .  A
C1203      C1204   1.417       .  A
C1204      C1210   1.406       .  A
C1204      C1205   1.449       .  A
C1205      C1207   1.417       .  A
C1205      C1206   1.405       .  A
C1206      C1214   1.431       .  A
C1207      C1216   1.445       .  A
C1207      C1208   1.409       .  A
C1208      C1209   1.417       .  A
C1208      H1219   1.083       .  S
C1209      C1210   1.412       .  A
C1209      H1220   1.083       .  S
C1210      C1211   1.434       .  A
C1211      C1212   1.431       .  A
C1211      H1221   1.083       .  S
C1212      C1213   1.426       .  A
C1213      H1222   1.083       .  S
C1214      C1215   1.433       .  A
C1214      H1223   1.083       .  S
C1215      C1216   1.425       .  A
C1216      H1224   1.083       .  S
C1225      C1226   1.396       .  A
C1225      C1230   1.402       .  A
C1225      H1241   1.084       .  S
C1226      C1227   1.402       .  A
C1226      H1242   1.083       .  S
C1227      C1237   1.394       .  A
C1227      C1228   1.412       .  A
C1228      C1234   1.410       .  A
C1228      C1229   1.393       .  A
C1229      C1231   1.409       .  A
C1229      C1230   1.412       .  A
C1230      C1238   1.394       .  A
C1231      C1240   1.375       .  A
C1231      C1232   1.398       .  A
C1232      C1233   1.384       .  A
C1232      H1243   1.084       .  S
C1233      C1234   1.398       .  A
C1233      H1244   1.084       .  S
C1234      C1235   1.377       .  A
C1235      C1236   1.394       .  A
C1235      H1245   1.085       .  S
C1236      C1237   1.399       .  A
C1237      H1246   1.084       .  S
C1238      C1239   1.399       .  A
C1238      H1247   1.084       .  S
C1239      C1240   1.398       .  A
C1240      H1248   1.085       .  S
C1249      C1250   1.386       .  A
C1249      C1254   1.398       .  A
C1249      H1265   1.084       .  S
C1250      C1251   1.399       .  A
C1250      H1266   1.084       .  S
C1251      C1261   1.380       .  A
C1251      C1252   1.409       .  A
C1252      C1258   1.412       .  A
C1252      C1253   1.402       .  A
C1253      C1255   1.413       .  A
C1253      C1254   1.409       .  A
C1254      C1262   1.380       .  A
C1255      C1264   1.406       .  A
C1255      C1256   1.404       .  A
C1256      C1257   1.403       .  A
C1256      H1267   1.083       .  S
C1257      C1258   1.405       .  A
C1257      H1268   1.083       .  S
C1258      C1259   1.407       .  A
C1259      C1260   1.407       .  A
C1259      H1269   1.084       .  S
C1260      C1261   1.400       .  A
C1261      H1270   1.084       .  S
C1262      C1263   1.397       .  A
C1262      H1271   1.086       .  S
C1263      C1264   1.402       .  A
C1264      H1272   1.081       .  S
C1273      C1274   1.398       .  A
C1273      C1278   1.403       .  A
C1273      H1289   1.084       .  S
C1274      C1275   1.403       .  A
C1274      H1290   1.083       .  S
C1275      C1285   1.399       .  A
C1275      C1276   1.412       .  A
C1276      C1282   1.410       .  A
C1276      C1277   1.396       .  A
C1277      C1279   1.408       .  A
C1277      C1278   1.413       .  A
C1278      C1286   1.399       .  A
C1279      C1288   1.377       .  A
C1279      C1280   1.399       .  A
C1280      C1281   1.385       .  A
C1280      H1291   1.084       .  S
C1281      C1282   1.398       .  A
C1281      H1292   1.084       .  S
C1282      C1283   1.378       .  A
C1283      C1284   1.398       .  A
C1283      H1293   1.086       .  S
C1284      C1285   1.401       .  A
C1285      H1294   1.084       .  S
C1286      C1287   1.401       .  A
C1286      H1295   1.084       .  S
C1287      C1288   1.400       .  A
C1288      H1296   1.085       .  S
C1297      C1298   1.397       .  A
C1297      C1302   1.401       .  A
C1297      H1313   1.083       .  S
C1298      C1299   1.403       .  A
C1298      H1314   1.083       .  S
C1299      C1309   1.394       .  A
C1299      C1300   1.409       .  A
C1300      C1306   1.412       .  A
C1300      C1301   1.397       .  A
C1301      C1303   1.406       .  A
C1301      C1302   1.415       .  A
C1302      C1310   1.400       .  A
C1303      C1312   1.376       .  A
C1303      C1304   1.399       .  A
C1304      C1305   1.387       .  A
C1304      H1315   1.084       .  S
C1305      C1306   1.399       .  A
C1305      H1316   1.084       .  S
C1306      C1307   1.384       .  A
C1307      C1308   1.397       .  A
C1307      H1317   1.085       .  S
C1308      C1309   1.403       .  A
C1309      H1318   1.084       .  S
C1310      C1311   1.396       .  A
C1310      H1319   1.081       .  S
C1311      C1312   1.401       .  A
C1312      H1320   1.086       .  S
C1321      C1322   1.420       .  A
C1321      C1326   1.413       .  A
C1321      H1337   1.083       .  S
C1322      C1323   1.412       .  A
C1322      H1338   1.083       .  S
C1323      C1333   1.444       .  A
C1323      C1324   1.413       .  A
C1324      C1330   1.409       .  A
C1324      C1325   1.444       .  A
C1325      C1327   1.409       .  A
C1325      C1326   1.413       .  A
C1326      C1334   1.445       .  A
C1327      C1336   1.423       .  A
C1327      C1328   1.407       .  A
C1328      C1329   1.407       .  A
C1328      H1339   1.083       .  S
C1329      C1330   1.407       .  A
C1329      H1340   1.083       .  S
C1330      C1331   1.422       .  A
C1331      C1332   1.423       .  A
C1331      H1341   1.084       .  S
C1332      C1333   1.428       .  A
C1333      H1342   1.083       .  S
C1334      C1335   1.429       .  A
C1334      H1343   1.083       .  S
C1335      C1336   1.423       .  A
C1336      H1344   1.084       .  S
C1345      C1346   1.415       .  A
C1345      C1350   1.409       .  A
C1345      H1361   1.083       .  S
C1346      C1347   1.411       .  A
C1346      H1362   1.083       .  S
C1347      C1357   1.428       .  A
C1347      C1348   1.407       .  A
C1348      C1354   1.415       .  A
C1348      C1349   1.436       .  A
C1349      C1351   1.404   1_556  A
C1349      C1350   1.416       .  A
C1350      C1358   1.439   1_556  A
C1351      C1360   1.414       .  A
C1351      C1352   1.406       .  A
C1352      C1353   1.405       .  A
C1352      H1363   1.083       .  S
C1353      C1354   1.404   1_554  A
C1353      H1364   1.083       .  S
C1354      C1355   1.425       .  A
C1355      C1356   1.414       .  A
C1355      H1365   1.083       .  S
C1356      C1357   1.425       .  A
C1357      H1366   1.083       .  S
C1358      C1359   1.423       .  A
C1358      H1367   1.083       .  S
C1359      C1360   1.422       .  A
C1360      H1368   1.082       .  S
