geometry optimzed in LAMMPS
_audit_creation_date              2020-12-01 
_audit_creation_method            'lammps2cif' 
_symmetry_space_group_name_H-M    'P1' 
_symmetry_Int_Tables_number       1 
_symmetry_cell_setting            triclinic 
loop_ 
_symmetry_equiv_pos_as_xyz 
  x,y,z 
_cell_length_a                    35.4530064 
_cell_length_b                    36.62306903861083 
_cell_length_c                    32.09208914277881 
_cell_angle_alpha                 84.2097845714856 
_cell_angle_beta                  83.53320820369107 
_cell_angle_gamma                 89.78781374175264 
loop_ 
_atom_site_label 
_atom_site_type_symbol 
_atom_site_fract_x 
_atom_site_fract_y 
_atom_site_fract_z 
_atom_site_charge 
N1          N  0.12010923  0.27216790  0.23653330    -0.03200
C2          C  0.11287812  0.27257759  0.27901223    -0.00600
C3          C  0.07604960  0.26204191  0.29355621    -0.23500
C4          C  0.06132829  0.24951417  0.26034110    -0.23700
C5          C  0.09068169  0.25127131  0.22757287    -0.00700
H6          H  0.06392284  0.25735919  0.32617486     0.13100
H7          H  0.03574758  0.23292008  0.26339852     0.13100
N8          N  0.12025564  0.24462209  0.60048888    -0.03200
C9          C  0.10922840  0.23964821  0.56238932    -0.00600
C10         C  0.07664624  0.26016903  0.55719190    -0.23500
C11         C  0.07047992  0.28097790  0.59058526    -0.23700
C12         C  0.09786935  0.27087011  0.61652689    -0.00700
H13         H  0.06378662  0.26546109  0.52813947     0.13100
H14         H  0.05137665  0.30400483  0.59282784     0.13100
N15         N  0.00298548  0.33724038  0.74770723    -0.03200
C16         C  0.99464282  0.31831753  0.78640330    -0.00600
C17         C  0.01462127  0.28610311  0.78993062    -0.23500
C18         C  0.03951464  0.28719196  0.75431654    -0.23700
C19         C  0.03579569  0.32147372  0.73199505    -0.00700
H20         H  0.01405776  0.26602621  0.81717306     0.13100
H21         H  0.06361666  0.26907186  0.75109057     0.13100
N22         N  0.02877012  0.34039191  0.08792408    -0.03200
C23         C  0.02482225  0.33776841  0.04682079    -0.00600
C24         C  0.05978419  0.33361053  0.02415937    -0.23500
C25         C  0.08631713  0.33540251  0.05177654    -0.23700
C26         C  0.06667298  0.34090751  0.09041603    -0.00700
H27         H  0.06551051  0.33235956  0.99047988     0.13100
H28         H  0.11676718  0.33601567  0.04353741     0.13100
O29         O  0.15642679  0.30800978  0.78352631    -0.80600
O30         O  0.11347025  0.39636438  0.61509835    -0.65300
O31         O  0.16185751  0.33671162  0.69737862    -1.11900
C32         C  0.18890911  0.45384247  0.74025990     1.06300
O33         O  0.16427017  0.43196904  0.59912581    -0.78500
O34         O  0.22380753  0.43156225  0.64614508    -0.66100
Ni35       Ni  0.13381002  0.29937669  0.73271682     1.34900
C36         C  0.23892245  0.40152724  0.65885612     0.85000
O37         O  0.12660038  0.32523259  0.62790562    -0.79100
O38         O  0.10936414  0.28522300  0.68464733    -0.89300
C39         C  0.13544569  0.41602783  0.58817548     0.84600
O40         O  0.09723738  0.33517883  0.74653719    -0.67500
O41         O  0.17985045  0.46881570  0.70525091    -0.86800
C42         C  0.07254518  0.34217747  0.72172291     0.85400
C43         C  0.11167104  0.29525475  0.64494286     1.07000
H44         H  0.12446484  0.41371683  0.70176380     0.38800
O45         O  0.14736909  0.40577121  0.68605608    -1.09500
O46         O  0.22271848  0.37885737  0.68752301    -0.66100
Ni47       Ni  0.17635395  0.37768687  0.72407096     1.26300
O48         O  0.08292032  0.35818128  0.68511668    -0.66400
O49         O  0.19084542  0.41926280  0.74889075    -0.78700
C50         C  0.18556103  0.32564157  0.79099778     0.84800
O51         O  0.20281373  0.34853663  0.76328872    -0.65800
Ni52       Ni  0.17176378  0.44830713  0.65374411     1.27400
Ni53       Ni  0.13546239  0.36582287  0.65670647     1.26100
H54         H  0.18366172  0.32553863  0.68297147     0.39300
O55         O  0.23311941  0.38653500  0.09880005    -0.80600
O56         O  0.13158330  0.43526140  0.25312749    -0.65300
O57         O  0.19810340  0.38053585  0.18335070    -1.11900
C58         C  0.08591068  0.35317423  0.12506571     1.06300
O59         O  0.08997815  0.38959221  0.26621203    -0.78500
O60         O  0.09336661  0.32947240  0.22310596    -0.66100
Ni61       Ni  0.24423857  0.39952053  0.15418075     1.34900
C62         C  0.12203175  0.30915656  0.21540379     0.85000
O63         O  0.20555873  0.42005437  0.25037322    -0.79100
O64         O  0.25907533  0.41051697  0.20826487    -0.89300
C65         C  0.10839938  0.41558552  0.27875750     0.84600
O66         O  0.22851192  0.44954902  0.14028377    -0.67500
O67         O  0.06696183  0.36726688  0.15579467    -0.86800
C68         C  0.20158772  0.47004059  0.15416655     0.85400
C69         C  0.24157327  0.41684986  0.24399295     1.07000
H70         H  0.12363736  0.41811746  0.16425959     0.38800
O71         O  0.12854782  0.39698457  0.18339547    -1.09500
O72         O  0.15146991  0.32060167  0.19100844    -0.66100
Ni73       Ni  0.16049203  0.36512248  0.15203286     1.26300
O74         O  0.17554385  0.45751455  0.18284557    -0.66400
O75         O  0.12182593  0.35012258  0.12109483    -0.78700
C76         C  0.21788337  0.35666014  0.09071541     0.84800
O77         O  0.19581145  0.33817931  0.11890234    -0.65800
Ni78       Ni  0.08031405  0.37941503  0.20969043     1.27400
Ni79       Ni  0.16628961  0.41014404  0.21707262     1.26100
H80         H  0.20503891  0.35965721  0.20174413     0.39300
N81         N  0.29960152  0.41156180  0.28633689    -0.03200
C82         C  0.30388424  0.41576855  0.32711677    -0.00600
C83         C  0.26991290  0.42559692  0.34822783    -0.23500
C84         C  0.24393735  0.42764641  0.31961198    -0.23700
C85         C  0.26256282  0.41960740  0.28147350    -0.00700
H86         H  0.26476345  0.43127920  0.38083529     0.13100
H87         H  0.21432815  0.43389570  0.32602089     0.13100
N88         N  0.30656520  0.40364788  0.62166734    -0.03200
C89         C  0.32078376  0.38743623  0.58675585    -0.00600
C90         C  0.29556310  0.36172003  0.57710200    -0.23500
C91         C  0.26471422  0.36181910  0.60635738    -0.23700
C92         C  0.27171550  0.38762658  0.63301140    -0.00700
H93         H  0.29816061  0.34642230  0.54977073     0.13100
H94         H  0.23841174  0.34694932  0.60605798     0.13100
O95         O  0.42746607  0.44389130  0.60404141    -0.80600
O96         O  0.33766570  0.35516802  0.76121200    -0.65300
O97         O  0.41168080  0.41122579  0.68726808    -1.11900
C98         C  0.43638112  0.29390708  0.63450862     1.06300
O99         O  0.37865133  0.31094327  0.77477806    -0.78500
O100        O  0.44673411  0.30630034  0.73095052    -0.66100
Ni101      Ni  0.40086783  0.45697205  0.65716739     1.34900
C102        C  0.46964698  0.33364406  0.72512769     0.85000
O103        O  0.35763596  0.42537984  0.75317463    -0.79100
O104        O  0.37465245  0.47499651  0.70833193    -0.89300
C105        C  0.35271319  0.33277070  0.78725352     0.84600
O106        O  0.35530742  0.44045941  0.63764043    -0.67500
O107        O  0.41447549  0.27937933  0.66602834    -0.86800
C108        C  0.33182146  0.41453191  0.65059456     0.85400
C109        C  0.36041933  0.45988687  0.74447387     1.07000
H110        H  0.36973443  0.34086329  0.67285192     0.38800
O111        O  0.38846654  0.34475364  0.69164219    -1.09500
O112        O  0.46578969  0.36104410  0.69830825    -0.66100
Ni113      Ni  0.42920579  0.37023878  0.65797797     1.26300
O114        O  0.33309501  0.39459397  0.68554202    -0.66400
O115        O  0.44587255  0.32792620  0.62998688    -0.78700
C116        C  0.45497335  0.42234994  0.59451455     0.84800
O117        O  0.46647207  0.39876576  0.62195943    -0.65800
Ni118      Ni  0.39624068  0.29725488  0.71922230     1.27400
Ni119      Ni  0.37247256  0.38478994  0.72287082     1.26100
H120        H  0.43052020  0.41706898  0.70514752     0.39300
O121        O  0.48481118  0.36409434  0.26980999    -0.80600
O122        O  0.39845174  0.35054042  0.10706123    -0.65300
O123        O  0.45147210  0.38248382  0.19465922    -1.11900
C124        C  0.32933945  0.40317163  0.25477902     1.06300
O125        O  0.36681302  0.40239758  0.10212265    -0.78500
O126        O  0.38777977  0.44629869  0.15941047    -0.66100
Ni127      Ni  0.49008439  0.34906772  0.21327347     1.34900
C128        C  0.39403253  0.45944678  0.19303263     0.85000
O129        O  0.47035810  0.36304965  0.11343403    -0.79100
O130        O  0.50353437  0.33120235  0.15844050    -0.89300
C131        C  0.37846534  0.37303650  0.08691691     0.84600
O132        O  0.45257966  0.31179988  0.23106642    -0.67500
O133        O  0.32692598  0.41612855  0.21671692    -0.86800
C134        C  0.42745944  0.30040711  0.21008406     0.85400
C135        C  0.49984475  0.34606764  0.12147256     1.07000
H136        H  0.36655665  0.35006961  0.19128612     0.38800
O137        O  0.38099012  0.37262123  0.18485894    -1.09500
O138        O  0.40230345  0.43794242  0.22416302    -0.66100
Ni139      Ni  0.40533933  0.38431582  0.23230142     1.26300
O140        O  0.42383679  0.31426269  0.17255522    -0.66400
O141        O  0.35794433  0.38517923  0.26604194    -0.78700
C142        C  0.46099127  0.38217194  0.29219541     0.84800
O143        O  0.42982646  0.39361088  0.28009683    -0.65800
Ni144      Ni  0.34965952  0.40890507  0.16069274     1.27400
Ni145      Ni  0.42555640  0.36607672  0.14998390     1.26100
H146        H  0.46211065  0.40673741  0.18642859     0.39300
N147        N  0.40889196  0.24107932  0.25205121    -0.03200
C148        C  0.38923401  0.23654735  0.29109949    -0.00600
C149        C  0.36418155  0.26505145  0.29582140    -0.23500
C150        C  0.37003007  0.28832570  0.25925819    -0.23700
C151        C  0.39883816  0.27388555  0.23297234    -0.00700
H152        H  0.34720162  0.27087669  0.32455093     0.13100
H153        H  0.35901310  0.31582508  0.25580596     0.13100
N154        N  0.44972282  0.23480238  0.59704187    -0.03200
C155        C  0.45998215  0.23045214  0.55538151    -0.00600
C156        C  0.46782317  0.26415601  0.53258607    -0.23500
C157        C  0.46139649  0.29007341  0.55982877    -0.23700
C158        C  0.45018567  0.27212338  0.59907308    -0.00700
H159        H  0.47410089  0.26961246  0.49871387     0.13100
H160        H  0.46146289  0.31919164  0.55100170     0.10700
N161        N  0.35962206  0.00559519  0.80428486    -0.03200
C162        C  0.33411007  0.01256402  0.83779218    -0.00600
C163        C  0.30071937  0.49534033  0.82945007    -0.23500
C164        C  0.30661203  0.47464001  0.79644962    -0.23700
C165        C  0.34311104  0.48190316  0.77831178    -0.00700
H166        H  0.27573750  0.49369437  0.85212723     0.13100
H167        H  0.28668229  0.45557222  0.78708550     0.13100
N168        N  0.37388819  0.02483635  0.17228892    -0.03200
C169        C  0.34476710  0.01633671  0.15099354    -0.00600
C170        C  0.32385058  0.49874095  0.17555817    -0.23500
C171        C  0.33991793  0.49235808  0.21264723    -0.23700
C172        C  0.37849705  0.49695464  0.20041042    -0.00700
H173        H  0.29784584  0.48615046  0.16944225     0.13100
H174        H  0.32709114  0.47592638  0.24031325     0.13100
O175        O  0.40931485  0.17904664  0.78405690    -0.80600
O176        O  0.45591514  0.10231929  0.62412201    -0.65300
O177        O  0.40220574  0.15520792  0.70675360    -1.11900
C178        C  0.38293699  0.03397924  0.77947583     1.06300
O179        O  0.41292515  0.05779964  0.63257643    -0.78500
O180        O  0.35696105  0.04952540  0.69539186    -0.66100
Ni181      Ni  0.42735644  0.19475284  0.72625653     1.34900
C182        C  0.33300710  0.07449942  0.70390986     0.85000
O183        O  0.43734611  0.17329635  0.62501053    -0.79100
O184        O  0.44557847  0.21515814  0.66935588    -0.89300
C185        C  0.43749952  0.07813864  0.60940179     0.84600
O186        O  0.47425603  0.17014226  0.73535167    -0.67500
O187        O  0.40709953  0.02431114  0.75030065    -0.86800
C188        C  0.49308882  0.14731535  0.71428599     0.85400
C189        C  0.44364725  0.20629263  0.63209109     1.07000
H190        H  0.44475834  0.08503973  0.71958866     0.38800
O191        O  0.42198223  0.08909066  0.70641951    -1.09500
O192        O  0.34251102  0.10424367  0.71835272    -0.66100
Ni193      Ni  0.38848683  0.11250271  0.74567151     1.26300
O194        O  0.48122336  0.13539964  0.68224276    -0.66400
O195        O  0.37453716  0.06782601  0.78273924    -0.78700
C196        C  0.37777882  0.16532000  0.80188813     0.84800
O197        O  0.36005548  0.14096459  0.78550213    -0.65800
Ni198      Ni  0.41037845  0.04259112  0.69181056     1.27400
Ni199      Ni  0.43077970  0.13017897  0.66497569     1.26100
H200        H  0.37963961  0.16484680  0.69543693     0.39300
O201        O  0.32733245  0.14832393  0.12540112    -0.80600
O202        O  0.40641076  0.09001217  0.28605337    -0.65300
O203        O  0.35530152  0.14634523  0.20406118    -1.11900
C204        C  0.47644402  0.18148764  0.13712868     1.06300
O205        O  0.46067726  0.12170432  0.27916976    -0.78500
O206        O  0.44367330  0.18816360  0.24691598    -0.66100
Ni207      Ni  0.31827500  0.12046809  0.17950604     1.34900
C208        C  0.42070668  0.20998933  0.23014532     0.85000
O209        O  0.33359592  0.10716812  0.28192738    -0.79100
O210        O  0.30238064  0.08973369  0.23130020    -0.89300
C211        C  0.43658122  0.09945848  0.29985744     0.84600
O212        O  0.35519640  0.08619689  0.15983837    -0.67500
O213        O  0.48653859  0.17798891  0.17380151    -0.86800
C214        C  0.37060965  0.06243148  0.18395680     0.85400
C215        C  0.30363839  0.09449121  0.26987738     1.07000
H216        H  0.43379183  0.10723007  0.19188343     0.38800
O217        O  0.42559719  0.12860941  0.20567569    -1.09500
O218        O  0.40565463  0.20397369  0.19675688    -0.66100
Ni219      Ni  0.39993408  0.16021488  0.16700718     1.26300
O220        O  0.37719287  0.06979956  0.22064971    -0.66400
O221        O  0.44406566  0.17191849  0.12925148    -0.78700
C222        C  0.34729960  0.17581720  0.10868834     0.84800
O223        O  0.37272599  0.18944699  0.12757755    -0.65800
Ni224      Ni  0.46997842  0.14832713  0.22515883     1.27400
Ni225      Ni  0.38049902  0.11682699  0.24471001     1.26100
H226        H  0.34381231  0.16732643  0.21633512     0.39300
N227        N  0.27034299  0.08387661  0.29932138    -0.03200
C228        C  0.26771096  0.06416289  0.33803390    -0.00600
C229        C  0.23067290  0.05272630  0.35107750    -0.23500
C230        C  0.20936671  0.06599102  0.32074272    -0.23700
C231        C  0.23372262  0.08528706  0.28979830    -0.00700
H232        H  0.21976919  0.03848488  0.38124464     0.13100
H233        H  0.17884473  0.06333136  0.32203144     0.13100
N234        N  0.27663805  0.07775185  0.66284666    -0.03200
C235        C  0.27939056  0.04844859  0.63971815    -0.00600
C236        C  0.28141880  0.01636731  0.66576831    -0.23500
C237        C  0.28625671  0.02724308  0.70433663    -0.23700
C238        C  0.29260508  0.06505795  0.69837952    -0.00700
H239        H  0.28331453  0.98849295  0.65742633     0.13100
H240        H  0.29600774  0.00880490  0.72880536     0.13100
N241        N  0.18841508  0.00979108  0.78240159    -0.03200
C242        C  0.19343995  0.01245636  0.82350107    -0.00600
C243        C  0.20388995  0.48074558  0.84132132    -0.23500
C244        C  0.20581449  0.45656802  0.81214931    -0.23700
C245        C  0.19666069  0.47538387  0.77498476    -0.00700
H246        H  0.20829981  0.47468024  0.87415474     0.13100
H247        H  0.21146551  0.42756068  0.81825669     0.13100
N248        N  0.20280657  0.50942486  0.13909238    -0.03200
C249        C  0.22924986  0.51909698  0.10548830    -0.00600
C250        C  0.25367328  0.03662347  0.12281978    -0.23500
C251        C  0.24298733  0.04025071  0.16445650    -0.23700
C252        C  0.20414820  0.03353203  0.17080084    -0.00700
H253        H  0.27821195  0.05001011  0.10482184     0.13100
H254        H  0.25849789  0.05764690  0.18189313     0.13100
N255        N  0.05524947  0.14880075  0.74576989    -0.03200
C256        C  0.05920315  0.12773576  0.78259579    -0.00600
C257        C  0.03982532  0.09492480  0.78442887    -0.23500
C258        C  0.51605691  0.09563765  0.75722932    -0.23700
C259        C  0.02840390  0.13091918  0.72764434    -0.00700
H260        H  0.03612370  0.07348029  0.81033368     0.13100
H261        H  0.49292178  0.07728618  0.75478884     0.13100
N262        N  0.04214429  0.19142962  0.09036174    -0.03200
C263        C  0.05283966  0.20955447  0.05166428    -0.00600
C264        C  0.02248823  0.22994382  0.03825499    -0.23500
C265        C  0.49017565  0.22301261  0.07126796    -0.23700
C266        C  0.00498855  0.19991699  0.09997327    -0.00700
H267        H  0.02085573  0.24444979  0.00740548     0.13100
H268        H  0.46151394  0.23284823  0.06966746     0.13100
O269        O  0.15039708  0.07333088  0.60548420    -0.80600
O270        O  0.19975246  0.13521258  0.77104684    -0.65300
O271        O  0.14647759  0.09808124  0.68729602    -1.11900
C272        C  0.13753979  0.21767702  0.62799813     1.06300
O273        O  0.18104650  0.19357878  0.76710107    -0.78500
O274        O  0.11351480  0.18041598  0.73944324    -0.66100
Ni275      Ni  0.16806219  0.05771268  0.66011466     1.34900
C276        C  0.08999684  0.16319836  0.72126328     0.85000
O277        O  0.16980554  0.07042328  0.76346760    -0.79100
O278        O  0.18579829  0.03478954  0.71212570    -0.89300
C279        C  0.19581983  0.16599998  0.78590583     0.84600
O280        O  0.21472985  0.08418742  0.64324617    -0.67500
O281        O  0.13691139  0.22339057  0.66632108    -0.86800
C282        C  0.23763312  0.09070642  0.66946881     0.85400
C283        C  0.18024843  0.03953657  0.75130122     1.07000
H284        H  0.20345951  0.16522773  0.67778095     0.38800
O285        O  0.17788263  0.16097280  0.69129468    -1.09500
O286        O  0.09807371  0.15512534  0.68333946    -0.66100
Ni287      Ni  0.14672445  0.14302186  0.65214262     1.26300
O288        O  0.22509672  0.10189264  0.70483095    -0.66400
O289        O  0.14864704  0.18755541  0.61546581    -0.78700
C290        C  0.12649812  0.09715931  0.59320729     0.84800
O291        O  0.11670091  0.12359860  0.61435456    -0.65800
Ni292      Ni  0.15961607  0.20464244  0.71511148     1.27400
Ni293      Ni  0.17454561  0.11613485  0.72847144     1.26100
H294        H  0.12107518  0.09141946  0.69991272     0.39300
O295        O  0.06981387  0.14010950  0.26729523    -0.80600
O296        O  0.17478789  0.20186058  0.11461219    -0.65300
O297        O  0.11206322  0.13325639  0.18740442    -1.11900
C298        C  0.21783926  0.10748417  0.25532313     1.06300
O299        O  0.22071619  0.16048169  0.10837246    -0.78500
O300        O  0.19772384  0.09641834  0.14768508    -0.66100
Ni301      Ni  0.06169553  0.14496292  0.20756584     1.34900
C302        C  0.18511582  0.07015216  0.17423115     0.85000
O303        O  0.10112272  0.18354329  0.11678986    -0.79100
O304        O  0.05090321  0.15121018  0.14984910    -0.89300
C305        C  0.20081177  0.18621818  0.09257499     0.84600
O306        O  0.06706262  0.19699469  0.20674790    -0.67500
O307        O  0.23491681  0.11077635  0.21785227    -0.86800
C308        C  0.09579914  0.21808132  0.20419121     0.85400
C309        C  0.06623925  0.17365395  0.11963982     1.07000
H310        H  0.18630300  0.17751634  0.20141234     0.38800
O311        O  0.17962533  0.15657861  0.18760268    -1.09500
O312        O  0.16404896  0.07699260  0.20732450    -0.66100
Ni313      Ni  0.14762019  0.12470590  0.22681308     1.26300
O314        O  0.12800897  0.20989475  0.18576709    -0.66400
O315        O  0.18449293  0.11917341  0.26441449    -0.78700
C316        C  0.08847960  0.11545176  0.28708834     0.84800
O317        O  0.11302527  0.09689832  0.26692470    -0.65800
Ni318      Ni  0.22525885  0.13658562  0.16374708     1.27400
Ni319      Ni  0.14134929  0.16977160  0.15148096     1.26100
H320        H  0.11087821  0.11181450  0.17233671     0.39300
C321        C  0.08556864  0.11116434  0.33392541    -0.01000
C322        C  0.07709418  0.14127577  0.35703873    -0.09000
C323        C  0.08001773  0.13863207  0.40047343    -0.17900
C324        C  0.09056585  0.10545798  0.42246606     0.04500
C325        C  0.09978752  0.07533724  0.39877402     0.18700
C326        C  0.09667547  0.07821811  0.35525375    -0.19300
C327        C  0.11373811  0.04301002  0.41829362    -0.20600
C328        C  0.12069597  0.04063793  0.46032232    -0.19100
C329        C  0.11188402  0.06977219  0.48455008     0.20100
C330        C  0.09446899  0.10170092  0.46662319     0.02200
C331        C  0.08162157  0.12826901  0.49375708    -0.13800
C332        C  0.08931032  0.12490160  0.53581069    -0.11600
C333        C  0.11147775  0.09592626  0.55171918     0.01800
C334        C  0.12110268  0.06751771  0.52633163    -0.23700
H335        H  0.07013729  0.16752307  0.34111147     0.09800
H336        H  0.07629731  0.16340032  0.41579775     0.13300
H337        H  0.10429614  0.05504622  0.33756514     0.12100
H338        H  0.12053232  0.01996972  0.40037728     0.13200
H339        H  0.13293261  0.01590359  0.47419803     0.12300
H340        H  0.06554905  0.15184007  0.48318701     0.09400
H341        H  0.07964795  0.14640291  0.55520494     0.12600
H342        H  0.13663781  0.04404228  0.53865270     0.14500
C343        C  0.20337683  0.16817630  0.82967285    -0.01000
C344        C  0.18715197  0.14080013  0.85935337    -0.09000
C345        C  0.18647806  0.14370339  0.90203495    -0.17900
C346        C  0.20279106  0.17416545  0.91695838     0.04500
C347        C  0.22067451  0.20167736  0.88690270     0.18700
C348        C  0.22008659  0.19893270  0.84336873    -0.19300
C349        C  0.23846706  0.23165387  0.90071319    -0.20600
C350        C  0.23785370  0.23529488  0.94370615    -0.19100
C351        C  0.21879236  0.20946808  0.97391557     0.20100
C352        C  0.20149544  0.17821839  0.96070073     0.02200
C353        C  0.18409758  0.15179717  0.99188373    -0.13800
C354        C  0.18282710  0.15659933  0.03410048    -0.11600
C355        C  0.19954857  0.18721403  0.04720263     0.01800
C356        C  0.21786500  0.21371826  0.01731366    -0.23700
H357        H  0.17232973  0.11803511  0.84937203     0.09800
H358        H  0.17159340  0.12210022  0.92230055     0.13300
H359        H  0.23205325  0.22071597  0.82035377     0.12100
H360        H  0.25277517  0.25252839  0.87815000     0.13200
H361        H  0.25218727  0.25857686  0.95335654     0.12300
H362        H  0.17146166  0.12672018  0.98516251     0.09400
H363        H  0.16946163  0.13542506  0.05707130     0.12600
H364        H  0.23202926  0.23677115  0.02772675     0.14500
C365        C  0.07669070  0.13966425  0.81933877    -0.01000
C366        C  0.08601424  0.11332873  0.85138477    -0.09000
C367        C  0.09390582  0.12346894  0.89025039    -0.17900
C368        C  0.09419310  0.16068027  0.89801185     0.04500
C369        C  0.08936230  0.18755606  0.86388717     0.18700
C370        C  0.07942634  0.17692827  0.82559515    -0.19300
C371        C  0.09216334  0.22488064  0.86909880    -0.20600
C372        C  0.09685789  0.23607330  0.90835089    -0.19100
C373        C  0.09729711  0.21027026  0.94357495     0.20100
C374        C  0.09668767  0.17214288  0.93889530     0.02200
C375        C  0.09439029  0.14734338  0.97595806    -0.13800
C376        C  0.08664497  0.16000086  0.01573562    -0.11600
C377        C  0.08245876  0.19759736  0.01950294     0.01800
C378        C  0.09315069  0.22243500  0.98390715    -0.23700
H379        H  0.58598900  0.08309528  0.85001893     0.09800
H380        H  0.60009971  0.10085146  0.91630778     0.13300
H381        H  0.07161979  0.19778629  0.80174704     0.12100
H382        H  0.08933012  0.24558342  0.84302652     0.13200
H383        H  0.09700478  0.26519988  0.91182558     0.12300
H384        H  0.59230965  0.11742841  0.97760454     0.09400
H385        H  0.57619256  0.13966115  0.04486038     0.12600
H386        H  0.09074975  0.25163808  0.98687661     0.14500
C387        C  0.18795066  0.04389110  0.84832528    -0.01000
C388        C  0.15691821  0.54272931  0.87617875    -0.09000
C389        C  0.16026368  0.54365588  0.91908917    -0.17900
C390        C  0.19304229  0.04970721  0.93455204     0.04500
C391        C  0.22469008  0.05858849  0.90384957     0.18700
C392        C  0.22129227  0.05743432  0.86083885    -0.19300
C393        C  0.26027002  0.06520314  0.91637500    -0.20600
C394        C  0.26563590  0.06114737  0.95876834    -0.19100
C395        C  0.23592388  0.04911599  0.98948471     0.20100
C396        C  0.20303572  0.54138706  0.97621319     0.02200
C397        C  0.17530011  0.52667724  0.00875127    -0.13800
C398        C  0.18413565  0.51844462  0.05018073    -0.11600
C399        C  0.22069876  0.52478763  0.06070734     0.01800
C400        C  0.24343385  0.04117229  0.03139762    -0.23700
H401        H  0.13034778  0.53324097  0.86726126     0.09800
H402        H  0.13487954  0.53831144  0.94069957     0.13300
H403        H  0.24655518  0.06007776  0.83825422     0.12100
H404        H  0.28436402  0.07263313  0.89319048     0.13200
H405        H  0.29357656  0.06637645  0.96748769     0.12300
H406        H  0.14673079  0.52063442  0.00294571     0.09400
H407        H  0.16205412  0.50743376  0.07418176     0.12600
H408        H  0.27203518  0.04515054  0.03871143     0.14500
C409        C  0.29445219  0.06153743  0.36997354    -0.01000
C410        C  0.29482737  0.02705670  0.39318540    -0.09000
C411        C  0.29282262  0.02378964  0.43689465    -0.17900
C412        C  0.29267788  0.05524118  0.45891638     0.04500
C413        C  0.29823027  0.09001190  0.43492747     0.18700
C414        C  0.29951747  0.09285529  0.39060444    -0.19300
C415        C  0.29982387  0.12178038  0.45556754    -0.20600
C416        C  0.29669315  0.11966371  0.49943816    -0.19100
C417        C  0.29016352  0.08586320  0.52382006     0.20100
C418        C  0.28713741  0.05330669  0.50379196     0.02200
C419        C  0.27813276  0.02019522  0.52950915    -0.13800
C420        C  0.27434466  0.01907090  0.57324013    -0.11600
C421        C  0.27942412  0.05077514  0.59312649     0.01800
C422        C  0.28658963  0.08429738  0.56812280    -0.23700
H423        H  0.28875818  0.00277890  0.37849761     0.09800
H424        H  0.29052544  0.99628606  0.45243885     0.13300
H425        H  0.29888457  0.11972068  0.37305931     0.12100
H426        H  0.30302947  0.14847089  0.43766567     0.13200
H427        H  0.29856847  0.14473138  0.51440445     0.12300
H428        H  0.27352694  0.99462926  0.51687393     0.09400
H429        H  0.26759314  0.99293236  0.59133496     0.12600
H430        H  0.29010419  0.10910359  0.58312672     0.14500
C431        C  0.44200836  0.07611111  0.56391372    -0.01000
C432        C  0.47215445  0.09442245  0.53854650    -0.09000
C433        C  0.47427818  0.09582184  0.49498956    -0.17900
C434        C  0.44593858  0.07919172  0.47552992     0.04500
C435        C  0.41532159  0.06087573  0.50162878     0.18700
C436        C  0.41401176  0.05887944  0.54534644    -0.19300
C437        C  0.38599944  0.04493014  0.48395375    -0.20600
C438        C  0.38641730  0.04705013  0.44056242    -0.19100
C439        C  0.41575624  0.06513289  0.41409561     0.20100
C440        C  0.44644738  0.08072202  0.43113534     0.02200
C441        C  0.47621833  0.09731879  0.40298613    -0.13800
C442        C  0.47439294  0.10041974  0.35988845    -0.11600
C443        C  0.44271000  0.08729869  0.34345206     0.01800
C444        C  0.41412392  0.06838050  0.37059377    -0.23700
H445        H  0.49385478  0.10834602  0.55236883     0.09800
H446        H  0.49782045  0.11100518  0.47757330     0.13300
H447        H  0.39024721  0.04512418  0.56488970     0.12100
H448        H  0.36303923  0.03029860  0.50376810     0.13200
H449        H  0.36432766  0.03380989  0.42725999     0.12300
H450        H  0.50078767  0.10897550  0.41325902     0.09400
H451        H  0.49701486  0.11503920  0.33953833     0.12600
H452        H  0.38951848  0.05795384  0.35817243     0.14500
C453        C  0.34284237  0.18873327  0.06405120    -0.01000
C454        C  0.37056014  0.21092368  0.03916114    -0.09000
C455        C  0.37225641  0.21417507  0.99512156    -0.17900
C456        C  0.34665012  0.19448896  0.97457612     0.04500
C457        C  0.31687764  0.17445550  0.00004715     0.18700
C458        C  0.31461372  0.17267903  0.04412407    -0.19300
C459        C  0.29107383  0.15412020  0.98154657    -0.20600
C460        C  0.29554859  0.15143819  0.93835830    -0.19100
C461        C  0.32623395  0.16839886  0.91269097     0.20100
C462        C  0.35104917  0.19172609  0.93013513     0.02200
C463        C  0.38036356  0.20981430  0.90264669    -0.13800
C464        C  0.38702286  0.20238641  0.86083329    -0.11600
C465        C  0.36496080  0.17655912  0.84450524     0.01800
C466        C  0.33335819  0.16086817  0.87019900    -0.23700
H467        H  0.39250404  0.22392045  0.05354489     0.09800
H468        H  0.39527536  0.23056121  0.97813654     0.13300
H469        H  0.29257568  0.15585684  0.06288243     0.12100
H470        H  0.26798033  0.13912981  0.00080588     0.13200
H471        H  0.27536450  0.13534655  0.92503105     0.12300
H472        H  0.39936961  0.22909227  0.91274814     0.09400
H473        H  0.41088780  0.21608627  0.84161797     0.12600
H474        H  0.31541453  0.14159308  0.85786823     0.14500
C475        C  0.34390888  0.01343933  0.88214959    -0.01000
C476        C  0.36771329  0.03973571  0.89502610    -0.09000
C477        C  0.37186974  0.04078141  0.93835916    -0.17900
C478        C  0.35150616  0.01596813  0.96996670     0.04500
C479        C  0.32995414  0.49023884  0.95283264     0.18700
C480        C  0.32678499  0.48825471  0.91025849    -0.19300
C481        C  0.30899365  0.46525640  0.98216628    -0.20600
C482        C  0.31181295  0.46495790  0.02463652    -0.19100
C483        C  0.33444865  0.49078997  0.03921020     0.20100
C484        C  0.35213696  0.01662670  0.01468487     0.02200
C485        C  0.37379849  0.04185654  0.03295445    -0.13800
C486        C  0.37183351  0.04177924  0.07708842    -0.11600
C487        C  0.34797705  0.01689362  0.10417707     0.01800
C488        C  0.33482404  0.49034936  0.08275011    -0.23700
H489        H  0.38225950  0.05998102  0.87190754     0.09800
H490        H  0.39018339  0.06180329  0.94648351     0.13300
H491        H  0.30978975  0.46607910  0.90205638     0.12100
H492        H  0.28976717  0.44599148  0.97226611     0.13200
H493        H  0.29532796  0.44488855  0.04636361     0.12300
H494        H  0.39219208  0.06192760  0.01382425     0.09400
H495        H  0.38874407  0.06151418  0.08993910     0.12600
H496        H  0.31902108  0.46911222  0.10341745     0.14500
C497        C  0.40125139  0.21308927  0.32807858    -0.01000
C498        C  0.37409306  0.19870715  0.36070313    -0.09000
C499        C  0.38451994  0.18652496  0.40061909    -0.17900
C500        C  0.42250879  0.18919370  0.40950998     0.04500
C501        C  0.45044466  0.20005469  0.37510914     0.18700
C502        C  0.43966809  0.21168731  0.33494743    -0.19300
C503        C  0.48859465  0.20266733  0.38183876    -0.20600
C504        C  0.49917622  0.19804712  0.42243462    -0.19100
C505        C  0.47193437  0.19072592  0.45736978     0.20100
C506        C  0.43330290  0.18516155  0.45156881     0.02200
C507        C  0.40675300  0.18046207  0.48827903    -0.13800
C508        C  0.41710482  0.18799930  0.52759291    -0.11600
C509        C  0.45442400  0.19845286  0.53160811     0.01800
C510        C  0.48236833  0.19407573  0.49783252    -0.23700
H511        H  0.34429908  0.19898209  0.35604040     0.09800
H512        H  0.36205036  0.17713891  0.42459675     0.13300
H513        H  0.46095413  0.22317747  0.31023036     0.12100
H514        H  0.51011046  0.21057513  0.35578356     0.13200
H515        H  0.52842423  0.20347552  0.42672361     0.12300
H516        H  0.37707269  0.17511146  0.48681875     0.09400
H517        H  0.39489500  0.19069172  0.55316277     0.12600
H518        H  0.51142612  0.20164368  0.50093332     0.14500
C519        C  0.46981555  0.42115214  0.54934839    -0.01000
C520        C  0.48771635  0.38946281  0.53596880    -0.09000
C521        C  0.49146194  0.38295629  0.49340346    -0.17900
C522        C  0.47925257  0.40911651  0.46239104     0.04500
C523        C  0.46621852  0.44332434  0.47554431     0.18700
C524        C  0.46096268  0.44882157  0.51860762    -0.19300
C525        C  0.45672252  0.47131111  0.44582930    -0.20600
C526        C  0.45618292  0.46515021  0.40390582    -0.19100
C527        C  0.46533075  0.43067570  0.39061251     0.20100
C528        C  0.47839648  0.40246664  0.41919978     0.02200
C529        C  0.48840116  0.36851194  0.40358034    -0.13800
C530        C  0.48430189  0.36256794  0.36183742    -0.11600
C531        C  0.46940780  0.38986512  0.33466780     0.01800
C532        C  0.46042502  0.42399454  0.34917013    -0.23700
H533        H  0.49682133  0.36852856  0.55888355     0.09800
H534        H  0.50329873  0.35696048  0.48584407     0.13300
H535        H  0.44812772  0.47400022  0.52828736     0.12100
H536        H  0.44884909  0.49787024  0.45546923     0.13200
H537        H  0.44721860  0.48711145  0.38205156     0.12300
H538        H  0.49873602  0.34581820  0.42310014     0.09400
H539        H  0.49146198  0.33598514  0.35122256     0.12600
H540        H  0.44908406  0.44531835  0.32820376     0.14500
C541        C  0.34710594  0.33760409  0.83259476    -0.01000
C542        C  0.34026940  0.30779459  0.86348309    -0.09000
C543        C  0.34246529  0.31217086  0.90613155    -0.17900
C544        C  0.35328725  0.34633535  0.91869228     0.04500
C545        C  0.36060219  0.37606800  0.88678232     0.18700
C546        C  0.35669021  0.37157883  0.84477579    -0.19300
C547        C  0.37356136  0.40985353  0.89642075    -0.20600
C548        C  0.37919971  0.41509583  0.93738425    -0.19100
C549        C  0.37097255  0.38709622  0.96995574     0.20100
C550        C  0.35827636  0.35207660  0.96124703     0.02200
C551        C  0.35211739  0.32435531  0.99538185    -0.13800
C552        C  0.35881104  0.33117927  0.03611286    -0.11600
C553        C  0.37063980  0.36598706  0.04425642     0.01800
C554        C  0.37637749  0.39382193  0.01112803    -0.23700
H555        H  0.33404128  0.28091978  0.85450314     0.09800
H556        H  0.33692124  0.28812580  0.92826884     0.13300
H557        H  0.36401751  0.39416431  0.82104232     0.12100
H558        H  0.38004902  0.43226612  0.87191294     0.13200
H559        H  0.39028161  0.44128256  0.94362766     0.12300
H560        H  0.34262124  0.29710900  0.99146979     0.09400
H561        H  0.35443203  0.30922715  0.06148138     0.12600
H562        H  0.38622297  0.42057049  0.01726736     0.14500
C563        C  0.33955800  0.41533476  0.34714236    -0.01000
C564        C  0.35074676  0.44826899  0.36077137    -0.09000
C565        C  0.36537359  0.44825160  0.39935943    -0.17900
C566        C  0.37114691  0.41494324  0.42374357     0.04500
C567        C  0.36942808  0.38202649  0.40407952     0.18700
C568        C  0.35264985  0.38227338  0.36623864    -0.19300
C569        C  0.38004328  0.34882266  0.42494449    -0.20600
C570        C  0.38667587  0.34695479  0.46710084    -0.19100
C571        C  0.38008158  0.37766716  0.48963619     0.20100
C572        C  0.37406909  0.41256154  0.46794962     0.02200
C573        C  0.36473529  0.44213197  0.49237757    -0.13800
C574        C  0.35385482  0.43548946  0.53586521    -0.11600
C575        C  0.35381056  0.39963933  0.55574919     0.01800
C576        C  0.37287178  0.37243441  0.53377538    -0.23700
H577        H  0.34372252  0.47408850  0.34407606     0.09800
H578        H  0.37017421  0.47434980  0.41048939     0.13300
H579        H  0.34539850  0.35656530  0.35493818     0.12100
H580        H  0.38066421  0.32378503  0.40954508     0.13200
H581        H  0.39227253  0.32040114  0.48329571     0.12300
H582        H  0.36045017  0.46948546  0.47802653     0.09400
H583        H  0.34018728  0.45725720  0.55230568     0.12600
H584        H  0.37384592  0.34484351  0.54950216     0.14500
C585        C  0.10671984  0.41983856  0.32460958    -0.01000
C586        C  0.08102497  0.39924490  0.35416768    -0.09000
C587        C  0.08332230  0.39906307  0.39748920    -0.17900
C588        C  0.11234474  0.41871550  0.41275954     0.04500
C589        C  0.13815163  0.43969958  0.38265904     0.18700
C590        C  0.13426701  0.44111606  0.33941375    -0.19300
C591        C  0.16856363  0.45816343  0.39571280    -0.20600
C592        C  0.17386852  0.45654572  0.43806318    -0.19100
C593        C  0.14826319  0.43727002  0.46872647     0.20100
C594        C  0.11717469  0.41793122  0.45658271     0.02200
C595        C  0.09252905  0.39849114  0.48884789    -0.13800
C596        C  0.09820852  0.39861008  0.53119596    -0.11600
C597        C  0.12877386  0.41788695  0.54310112     0.01800
C598        C  0.15373309  0.43713450  0.51150937    -0.23700
H599        H  0.05962030  0.38240968  0.34372155     0.09800
H600        H  0.06281105  0.38225981  0.41813573     0.13300
H601        H  0.15414128  0.45746296  0.31700637     0.12100
H602        H  0.18836815  0.47428158  0.37302200     0.13200
H603        H  0.19784611  0.47108355  0.44693120     0.12300
H604        H  0.06871946  0.38274859  0.48237423     0.09400
H605        H  0.07862892  0.38308215  0.55473154     0.12600
H606        H  0.17769494  0.45186584  0.52013950     0.14500
C607        C  0.22148291  0.34505506  0.04715603    -0.01000
C608        C  0.19855140  0.31610476  0.03867549    -0.09000
C609        C  0.19535980  0.30860513  0.99750588    -0.17900
C610        C  0.21556336  0.32951185  0.96284390     0.04500
C611        C  0.24190570  0.35622114  0.97141793     0.18700
C612        C  0.24443485  0.36405996  0.01330173    -0.19300
C613        C  0.26451860  0.37566210  0.93793650    -0.20600
C614        C  0.25999462  0.37084944  0.89630315    -0.19100
C615        C  0.23263745  0.34643002  0.88691677     0.20100
C616        C  0.21009684  0.32525717  0.92005575     0.02200
C617        C  0.18192605  0.30191959  0.90895133    -0.13800
C618        C  0.17587994  0.30038205  0.86689463    -0.11600
C619        C  0.19729678  0.32212028  0.83433435     0.01800
C620        C  0.22655862  0.34424343  0.84462084    -0.23700
H621        H  0.18136398  0.29998181  0.06396839     0.09800
H622        H  0.17645427  0.28645988  0.99388737     0.13300
H623        H  0.26316877  0.38578402  0.01931280     0.12100
H624        H  0.28591906  0.39473087  0.94379728     0.13200
H625        H  0.27735406  0.38710201  0.87124744     0.12300
H626        H  0.16334321  0.28522813  0.93209010     0.09400
H627        H  0.15326302  0.28305123  0.85993348     0.12600
H628        H  0.24341075  0.36133816  0.81985634     0.14500
C629        C  0.96912313  0.33085097  0.82182455    -0.01000
C630        C  0.44799648  0.30090537  0.85486808    -0.09000
C631        C  0.43970954  0.30897051  0.89634597    -0.17900
C632        C  0.95270868  0.34396581  0.90682134     0.04500
C633        C  0.96604921  0.37297682  0.87584614     0.18700
C634        C  0.97327772  0.36641039  0.83321911    -0.19300
C635        C  0.97714318  0.40649085  0.88829245    -0.20600
C636        C  0.98145076  0.40957595  0.93036448    -0.19100
C637        C  0.97476920  0.37916845  0.96042432     0.20100
C638        C  0.95723123  0.34704873  0.94992355     0.02200
C639        C  0.44965363  0.31885528  0.98441633    -0.13800
C640        C  0.46719627  0.31967615  0.02110749    -0.11600
C641        C  0.99068239  0.34589833  0.02540045     0.01800
C642        C  0.99054307  0.37857503  0.99866250    -0.23700
H643        H  0.44297303  0.27330980  0.84739614     0.09800
H644        H  0.42712160  0.28729716  0.91865885     0.13300
H645        H  0.98771809  0.38715978  0.81054920     0.12100
H646        H  0.98600619  0.42923368  0.86500676     0.13200
H647        H  0.99358119  0.43463381  0.93860514     0.12300
H648        H  0.43425043  0.29412651  0.98139918     0.09400
H649        H  0.46626110  0.29548655  0.04342762     0.12600
H650        H  0.00815141  0.40138288  0.00417084     0.14500
C651        C  0.13704026  0.23953322  0.52436674    -0.01000
C652        C  0.14161058  0.20855540  0.50245784    -0.09000
C653        C  0.15313257  0.21213932  0.45903153    -0.17900
C654        C  0.15899366  0.24735461  0.43640075     0.04500
C655        C  0.15867325  0.27820695  0.45998445     0.18700
C656        C  0.14957596  0.27369569  0.50382302    -0.19300
C657        C  0.16262762  0.31382065  0.43944704    -0.20600
C658        C  0.16215343  0.31981472  0.39608355    -0.19100
C659        C  0.15889630  0.29022638  0.37234584     0.20100
C660        C  0.16038423  0.25351449  0.39157745     0.02200
C661        C  0.15887822  0.22471023  0.36562848    -0.13800
C662        C  0.14956486  0.23189929  0.32451187    -0.11600
C663        C  0.14184494  0.26778678  0.30835967     0.01800
C664        C  0.14974002  0.29702509  0.33082738    -0.23700
H665        H  0.13376438  0.18194247  0.51835104     0.09800
H666        H  0.15386941  0.18726330  0.44363666     0.13300
H667        H  0.14637781  0.29776940  0.52103394     0.12100
H668        H  0.16275447  0.33739312  0.45734232     0.13200
H669        H  0.16189297  0.34782130  0.38146552     0.12300
H670        H  0.16197304  0.19629065  0.37716252     0.09400
H671        H  0.14377056  0.20898049  0.30721605     0.12600
H672        H  0.14383980  0.32480302  0.31816611     0.14500
N673        N  0.12244753  0.76983117  0.23693019    -0.03200
C674        C  0.11454088  0.76894828  0.27949691    -0.00600
C675        C  0.07796680  0.75702648  0.29308883    -0.23500
C676        C  0.06437060  0.74478485  0.25909578    -0.23700
C677        C  0.09422822  0.74805442  0.22684498    -0.00700
H678        H  0.06551311  0.75133997  0.32547259     0.13100
H679        H  0.03944283  0.72738416  0.26121923     0.13100
N680        N  0.11069275  0.74541211  0.60210544    -0.03200
C681        C  0.10013113  0.74221678  0.56337916    -0.00600
C682        C  0.06891460  0.76460031  0.55783567    -0.23500
C683        C  0.06299686  0.78440405  0.59209825    -0.23700
C684        C  0.08936610  0.77222725  0.61861174    -0.00700
H685        H  0.05699697  0.77147905  0.52842955     0.13100
H686        H  0.04518929  0.80836057  0.59447493     0.13100
N687        N  0.99944655  0.83312529  0.75326061    -0.03200
C688        C  0.99078544  0.81308824  0.79120791    -0.00600
C689        C  0.01275374  0.78218359  0.79485086    -0.23500
C690        C  0.03862271  0.78515106  0.75993268    -0.23700
C691        C  0.03305947  0.81905382  0.73743200    -0.00700
H692        H  0.01298151  0.76212090  0.82201288     0.13100
H693        H  0.06390428  0.76852481  0.75718641     0.13100
N694        N  0.02505781  0.83922351  0.09205775    -0.03200
C695        C  0.02040356  0.83556481  0.05133154    -0.00600
C696        C  0.05473039  0.82817939  0.02901871    -0.23500
C697        C  0.08167184  0.82903424  0.05636223    -0.23700
C698        C  0.06292101  0.83723343  0.09445829    -0.00700
H699        H  0.05994737  0.82515874  0.99565527     0.13100
H700        H  0.11198578  0.82715674  0.04815023     0.13100
O701        O  0.15167669  0.80445372  0.78551804    -0.80600
O702        O  0.10816419  0.89706335  0.61808999    -0.65300
O703        O  0.15650899  0.83577726  0.69955695    -1.11900
C704        C  0.18592621  0.95180935  0.74332850     1.06300
O705        O  0.16018313  0.93103180  0.60144211    -0.78500
O706        O  0.22075739  0.92679075  0.64737086    -0.66100
Ni707      Ni  0.12829610  0.79801219  0.73456389     1.34900
C708        C  0.23533907  0.89791836  0.66408071     0.85000
O709        O  0.11979459  0.82563650  0.63030026    -0.79100
O710        O  0.10255045  0.78536187  0.68665189    -0.89300
C711        C  0.13068154  0.91596273  0.59084799     0.84600
O712        O  0.09422997  0.83547119  0.74924990    -0.67500
O713        O  0.18069093  0.96660367  0.70677911    -0.86800
C714        C  0.06843480  0.84180759  0.72590276     0.85400
C715        C  0.10436998  0.79583687  0.64712611     1.07000
H716        H  0.12029227  0.91444135  0.70358104     0.38800
O717        O  0.14298894  0.90536217  0.68853768    -1.09500
O718        O  0.21799290  0.87738052  0.69396297    -0.66100
Ni719      Ni  0.17020898  0.87642360  0.72749160     1.26300
O720        O  0.07743005  0.85831856  0.68915428    -0.66400
O721        O  0.18344693  0.91743494  0.75380671    -0.78700
C722        C  0.17996959  0.82293910  0.79349781     0.84800
O723        O  0.19596366  0.84716937  0.76676491    -0.65800
Ni724      Ni  0.16992824  0.94657477  0.65574814     1.27400
Ni725      Ni  0.12987515  0.86570575  0.65938830     1.26100
H726        H  0.17846762  0.82500344  0.68497490     0.39300
O727        O  0.22849142  0.88916814  0.09917783    -0.80600
O728        O  0.12663068  0.93423679  0.25508202    -0.65300
O729        O  0.19461922  0.88186168  0.18418181    -1.11900
C730        C  0.08302414  0.85005967  0.12815554     1.06300
O731        O  0.08810055  0.88619198  0.26899774    -0.78500
O732        O  0.09316112  0.82630561  0.22555484    -0.66100
Ni733      Ni  0.24001574  0.90189698  0.15473264     1.34900
C734        C  0.12257305  0.80718932  0.21688395     0.85000
O735        O  0.20105818  0.92213174  0.25079457    -0.79100
O736        O  0.25481337  0.91246033  0.20916795    -0.89300
C737        C  0.10501193  0.91330512  0.28117319     0.84600
O738        O  0.22324426  0.95175530  0.14201043    -0.67500
O739        O  0.06432348  0.86355769  0.15940186    -0.86800
C740        C  0.19551568  0.97143873  0.15568564     0.85400
C741        C  0.23703544  0.91882387  0.24482967     1.07000
H742        H  0.11833939  0.91635257  0.16647671     0.38800
O743        O  0.12455288  0.89553978  0.18539817    -1.09500
O744        O  0.15110156  0.81998357  0.19201812    -0.66100
Ni745      Ni  0.15745347  0.86488020  0.15342950     1.26300
O746        O  0.16931951  0.95801629  0.18372361    -0.66400
O747        O  0.11903286  0.84814204  0.12310743    -0.78700
C748        C  0.21405056  0.85881750  0.09121066     0.84800
O749        O  0.19355081  0.83938234  0.11991014    -0.65800
Ni750      Ni  0.07780990  0.87578876  0.21294218     1.27400
Ni751      Ni  0.16202762  0.91049129  0.21824068     1.26100
H752        H  0.20234279  0.86133379  0.20256438     0.39300
N753        N  0.29358049  0.91158307  0.28958518    -0.03200
C754        C  0.29673843  0.91573827  0.33066320    -0.00600
C755        C  0.26275638  0.92719518  0.35023425    -0.23500
C756        C  0.23800612  0.93051507  0.32035306    -0.23700
C757        C  0.25727300  0.92135185  0.28300271    -0.00700
H758        H  0.25687658  0.93332636  0.38262421     0.13100
H759        H  0.20879482  0.93856670  0.32539624     0.13100
N760        N  0.30348741  0.90044137  0.62902318    -0.03200
C761        C  0.31898454  0.88100916  0.59725429    -0.00600
C762        C  0.29701086  0.85050783  0.59398750    -0.23500
C763        C  0.26631852  0.85141127  0.62326755    -0.23700
C764        C  0.27014659  0.88249068  0.64335492    -0.00700
H765        H  0.30075481  0.83168694  0.56994323     0.13100
H766        H  0.24157533  0.83369692  0.62614807     0.13100
O767        O  0.42368484  0.94414469  0.60902610    -0.80600
O768        O  0.33756792  0.85344463  0.76643050    -0.65300
O769        O  0.40971096  0.91129057  0.69215128    -1.11900
C770        C  0.43613697  0.79500948  0.63739709     1.06300
O771        O  0.37927930  0.80962734  0.77885780    -0.78500
O772        O  0.44697279  0.80606669  0.73358172    -0.66100
Ni773      Ni  0.39721574  0.95654297  0.66218545     1.34900
C774        C  0.46922923  0.83387625  0.72849577     0.85000
O775        O  0.35642984  0.92423175  0.75922533    -0.79100
O776        O  0.37106013  0.97383802  0.71342926    -0.89300
C777        C  0.35312034  0.83103582  0.79194709     0.84600
O778        O  0.35191827  0.93872488  0.64317634    -0.67500
O779        O  0.41434245  0.77977195  0.66867217    -0.86800
C780        C  0.32897160  0.91258056  0.65705060     0.85400
C781        C  0.35815265  0.95876695  0.74998853     1.07000
H782        H  0.36886037  0.84061069  0.67743592     0.38800
O783        O  0.38771863  0.84447536  0.69608449    -1.09500
O784        O  0.46465409  0.86176477  0.70254068    -0.66100
Ni785      Ni  0.42782959  0.87081537  0.66237074     1.26300
O786        O  0.33115349  0.89325652  0.69218720    -0.66400
O787        O  0.44519905  0.82909897  0.63370972    -0.78700
C788        C  0.45184435  0.92355130  0.59912385     0.84800
O789        O  0.46430453  0.90026672  0.62625820    -0.65800
Ni790      Ni  0.39637541  0.79675523  0.72262490     1.27400
Ni791      Ni  0.37147391  0.88395888  0.72818124     1.26100
H792        H  0.42867927  0.91762411  0.70963944     0.39300
O793        O  0.47972615  0.86611023  0.27482467    -0.80600
O794        O  0.39465213  0.85012681  0.11209835    -0.65300
O795        O  0.44664273  0.88332247  0.19966099    -1.11900
C796        C  0.32385847  0.90294389  0.25878261     1.06300
O797        O  0.36288364  0.90187936  0.10672413    -0.78500
O798        O  0.38189274  0.94670727  0.16385774    -0.66100
Ni799      Ni  0.48555080  0.85051305  0.21859847     1.34900
C800        C  0.38755426  0.96004481  0.19755374     0.85000
O801        O  0.46644610  0.86333719  0.11859539    -0.79100
O802        O  0.49929004  0.83194885  0.16422444    -0.89300
C803        C  0.37459275  0.87244355  0.09181709     0.84600
O804        O  0.44906055  0.81236714  0.23629116    -0.67500
O805        O  0.32176893  0.91547665  0.22058485    -0.86800
C806        C  0.42510878  0.79975379  0.21467342     0.85400
C807        C  0.49568099  0.84604111  0.12695534     1.07000
H808        H  0.36243668  0.84976747  0.19651664     0.38800
O809        O  0.37653613  0.87250337  0.18965102    -1.09500
O810        O  0.39624530  0.93869963  0.22866791    -0.66100
Ni811      Ni  0.40023987  0.88498426  0.23707752     1.26300
O812        O  0.42027422  0.81431458  0.17772047    -0.66400
O813        O  0.35252701  0.88533957  0.27061842    -0.78700
C814        C  0.45560116  0.88408936  0.29695935     0.84800
O815        O  0.42430978  0.89500971  0.28478612    -0.65800
Ni816      Ni  0.34494019  0.90828164  0.16495466     1.27400
Ni817      Ni  0.42138132  0.86619205  0.15499925     1.26100
H818        H  0.45700336  0.90766132  0.19126810     0.39300
N819        N  0.41190485  0.73797575  0.25364854    -0.03200
C820        C  0.39198127  0.73065358  0.29242033    -0.00600
C821        C  0.36425495  0.75677840  0.29809296    -0.23500
C822        C  0.36858116  0.78156681  0.26272462    -0.23700
C823        C  0.39901940  0.77034823  0.23613555    -0.00700
H824        H  0.34630436  0.76033043  0.32696914     0.13100
H825        H  0.35529454  0.80822060  0.26039708     0.13100
N826        N  0.45201764  0.73695597  0.59856776    -0.03200
C827        C  0.46265135  0.73336096  0.55668898    -0.00600
C828        C  0.46870940  0.76756212  0.53446999    -0.23500
C829        C  0.46069712  0.79289284  0.56220354    -0.23700
C830        C  0.45042937  0.77416178  0.60123618    -0.00700
H831        H  0.47490291  0.77359328  0.50065386     0.13100
H832        H  0.45926731  0.82202460  0.55392680     0.10700
N833        N  0.36078272  0.50588060  0.80023314    -0.03200
C834        C  0.33505629  0.51168040  0.83407612    -0.00600
C835        C  0.29922025  0.99724473  0.83328137    -0.23500
C836        C  0.30460156  0.97547469  0.80122375    -0.23700
C837        C  0.34139548  0.98120731  0.78350364    -0.00700
H838        H  0.27429555  0.99644716  0.85600985     0.13100
H839        H  0.28423018  0.95661738  0.79233938     0.13100
N840        N  0.38137718  0.52445810  0.16804851    -0.03200
C841        C  0.35185350  0.51647488  0.14694439    -0.00600
C842        C  0.31661189  0.99864681  0.17941179    -0.23500
C843        C  0.33257916  0.99230586  0.21660071    -0.23700
C844        C  0.37119799  0.99741025  0.20476964    -0.00700
H845        H  0.29043992  0.98642220  0.17318934     0.13100
H846        H  0.31972773  0.97575910  0.24415885     0.13100
O847        O  0.41422841  0.67993195  0.78568115    -0.80600
O848        O  0.45848058  0.60474491  0.62354797    -0.65300
O849        O  0.40626191  0.65665145  0.70812410    -1.11900
C850        C  0.38505016  0.53437472  0.77706802     1.06300
O851        O  0.41404380  0.56177743  0.63055386    -0.78500
O852        O  0.35841778  0.55345535  0.69387889    -0.66100
Ni853      Ni  0.43180911  0.69589365  0.72771411     1.34900
C854        C  0.33533258  0.57880179  0.70379998     0.85000
O855        O  0.44058336  0.67535232  0.62605174    -0.79100
O856        O  0.44944631  0.71675131  0.67070141    -0.89300
C857        C  0.43958861  0.58145418  0.60803165     0.84600
O858        O  0.47844765  0.67060921  0.73587774    -0.67500
O859        O  0.40879424  0.52516805  0.74729922    -0.86800
C860        C  0.49657961  0.64747977  0.71462589     0.85400
C861        C  0.44694236  0.70819145  0.63338592     1.07000
H862        H  0.44789510  0.58529443  0.71832023     0.38800
O863        O  0.42496693  0.59033595  0.70575769    -1.09500
O864        O  0.34590267  0.60742013  0.71957862    -0.66100
Ni865      Ni  0.39249541  0.61348905  0.74626870     1.26300
O866        O  0.48448042  0.63614761  0.68242051    -0.66400
O867        O  0.37786892  0.56819719  0.78213281    -0.78700
C868        C  0.38297581  0.66570739  0.80376689     0.84800
O869        O  0.36518514  0.64146396  0.78731065    -0.65800
Ni870      Ni  0.41167553  0.54494525  0.68941079     1.27400
Ni871      Ni  0.43394322  0.63198246  0.66532375     1.26100
H872        H  0.38362431  0.66664416  0.69729647     0.39300
O873        O  0.33201714  0.64743567  0.12612779    -0.80600
O874        O  0.41579005  0.58804392  0.28346878    -0.65300
O875        O  0.36256322  0.64446936  0.20321323    -1.11900
C876        C  0.48294506  0.68150352  0.13508847     1.06300
O877        O  0.46865990  0.62179839  0.27730571    -0.78500
O878        O  0.45040662  0.68767666  0.24521105    -0.66100
Ni879      Ni  0.32527631  0.61839114  0.17927016     1.34900
C880        C  0.42591842  0.70857516  0.22978693     0.85000
O881        O  0.34225713  0.60490257  0.28070071    -0.79100
O882        O  0.31170355  0.58639089  0.23034687    -0.89300
C883        C  0.44534880  0.59865556  0.29771677     0.84600
O884        O  0.36301222  0.58595549  0.15739731    -0.67500
O885        O  0.49372241  0.67760100  0.17146033    -0.86800
C886        C  0.37874341  0.56177634  0.18061938     0.85400
C887        C  0.31220422  0.59254870  0.26854844     1.07000
H888        H  0.44192183  0.60671011  0.18951803     0.38800
O889        O  0.43337223  0.62781587  0.20364219    -1.09500
O890        O  0.41114702  0.70276637  0.19615427    -0.66100
Ni891      Ni  0.40659939  0.65922431  0.16568856     1.26300
O892        O  0.38570663  0.56838954  0.21755429    -0.66400
O893        O  0.45032433  0.67209343  0.12770607    -0.78700
C894        C  0.35171442  0.67490309  0.10905029     0.84800
O895        O  0.37831170  0.68805723  0.12673293    -0.65800
Ni896      Ni  0.47749114  0.64822779  0.22311887     1.27400
Ni897      Ni  0.38881405  0.61497680  0.24294235     1.26100
H898        H  0.35094723  0.66513183  0.21603041     0.39300
N899        N  0.27834834  0.58332032  0.29748792    -0.03200
C900        C  0.27531703  0.56283586  0.33575016    -0.00600
C901        C  0.23870399  0.54935663  0.34658687    -0.23500
C902        C  0.21803761  0.56237704  0.31546083    -0.23700
C903        C  0.24229543  0.58350324  0.28616619    -0.00700
H904        H  0.22735585  0.53420917  0.37604462     0.13100
H905        H  0.18786569  0.55839216  0.31520401     0.13100
N906        N  0.27929116  0.58337031  0.66234957    -0.03200
C907        C  0.28345561  0.55383777  0.63966371    -0.00600
C908        C  0.28405066  0.52204110  0.66665064    -0.23500
C909        C  0.28692750  0.53358105  0.70543273    -0.23700
C910        C  0.29443124  0.57111765  0.69859966    -0.00700
H911        H  0.28612417  0.49393406  0.65914557     0.13100
H912        H  0.29506260  0.51561218  0.73115414     0.13100
N913        N  0.19020317  0.51173509  0.78001421    -0.03200
C914        C  0.19453796  0.51406276  0.82141142    -0.00600
C915        C  0.20339997  0.97932380  0.84336444    -0.23500
C916        C  0.20497714  0.95495673  0.81432313    -0.23700
C917        C  0.19502279  0.97350657  0.77737702    -0.00700
H918        H  0.20827675  0.97346396  0.87608142     0.13100
H919        H  0.21083850  0.92599419  0.82038106     0.13100
N920        N  0.19604290  0.01097504  0.14128852    -0.03200
C921        C  0.22277547  0.02143835  0.10818458    -0.00600
C922        C  0.26049011  0.53442804  0.11928943    -0.23500
C923        C  0.25049778  0.53872627  0.16086694    -0.23700
C924        C  0.21169371  0.53232141  0.16791971    -0.00700
H925        H  0.28480473  0.54764513  0.10074297     0.13100
H926        H  0.26636206  0.55649460  0.17757441     0.13100
N927        N  0.05551718  0.64665224  0.74766809    -0.03200
C928        C  0.05969052  0.62672699  0.78512347    -0.00600
C929        C  0.03768487  0.59532093  0.79004666    -0.23500
C930        C  0.51916812  0.59502143  0.75707334    -0.23700
C931        C  0.02767367  0.62909609  0.73105728    -0.00700
H932        H  0.03312775  0.57550236  0.81753596     0.13100
H933        H  0.49569064  0.57700645  0.75480927     0.13100
N934        N  0.04753621  0.69201847  0.09069639    -0.03200
C935        C  0.05766149  0.71170757  0.05287077    -0.00600
C936        C  0.02737926  0.73345354  0.04170588    -0.23500
C937        C  0.49511539  0.72262943  0.06874903    -0.23700
C938        C  0.01067480  0.70059924  0.10183286    -0.00700
H939        H  0.02513282  0.74939241  0.01180201     0.13100
H940        H  0.46600109  0.73097323  0.06692177     0.13100
O941        O  0.15433062  0.57630365  0.60278854    -0.80600
O942        O  0.19835924  0.63829627  0.76897913    -0.65300
O943        O  0.14782718  0.59929967  0.68483680    -1.11900
C944        C  0.13031987  0.71889835  0.62800320     1.06300
O945        O  0.17979068  0.69667334  0.76453034    -0.78500
O946        O  0.11213393  0.68062928  0.73905941    -0.66100
Ni947      Ni  0.17138269  0.56010871  0.65733028     1.34900
C948        C  0.08900802  0.66201320  0.72195775     0.85000
O949        O  0.17164935  0.57247548  0.76090157    -0.79100
O950        O  0.18870006  0.53704032  0.70955629    -0.89300
C951        C  0.19447623  0.66914900  0.78355705     0.84600
O952        O  0.21766357  0.58747265  0.64137603    -0.67500
O953        O  0.13147570  0.72458142  0.66605462    -0.86800
C954        C  0.23971589  0.59514683  0.66796443     0.85400
C955        C  0.18256723  0.54166706  0.74876467     1.07000
H956        H  0.20104993  0.66860848  0.67485185     0.38800
O957        O  0.17579264  0.66358340  0.68893437    -1.09500
O958        O  0.09631132  0.65359115  0.68403785    -0.66100
Ni959      Ni  0.14455840  0.64430678  0.65046190     1.26300
O960        O  0.22603397  0.60637544  0.70292065    -0.66400
O961        O  0.14210788  0.68923829  0.61455915    -0.78700
C962        C  0.12794831  0.59763440  0.59129907     0.84800
O963        O  0.11515951  0.62272427  0.61330346    -0.65800
Ni964      Ni  0.15656245  0.70669981  0.71344286     1.27400
Ni965      Ni  0.17458389  0.61846127  0.72606953     1.26100
H966        H  0.12293353  0.59110703  0.69768909     0.39300
O967        O  0.07623939  0.63673788  0.26414150    -0.80600
O968        O  0.18096856  0.70162021  0.11254423    -0.65300
O969        O  0.11941568  0.63161100  0.18463468    -1.11900
C970        C  0.22638533  0.60640187  0.25193126     1.06300
O971        O  0.22705961  0.66041890  0.10534446    -0.78500
O972        O  0.20628904  0.59540780  0.14468018    -0.66100
Ni973      Ni  0.06852729  0.64185401  0.20447072     1.34900
C974        C  0.19322790  0.56918383  0.17116209     0.85000
O975        O  0.10714211  0.68298712  0.11532292    -0.79100
O976        O  0.05783741  0.64856406  0.14682549    -0.89300
C977        C  0.20687843  0.68620719  0.09000451     0.84600
O978        O  0.07284043  0.69383201  0.20424357    -0.67500
O979        O  0.24356191  0.61052924  0.21444332    -0.86800
C980        C  0.10102181  0.71544951  0.20272122     0.85400
C981        C  0.07234626  0.67273879  0.11807627     1.07000
H982        H  0.19322524  0.67649040  0.19879482     0.38800
O983        O  0.18676194  0.65559472  0.18479499    -1.09500
O984        O  0.17192159  0.57597206  0.20404824    -0.66100
Ni985      Ni  0.15533235  0.62329833  0.22390943     1.26300
O986        O  0.13375856  0.70817741  0.18467247    -0.66400
O987        O  0.19278029  0.61760945  0.26119836    -0.78700
C988        C  0.09569916  0.61281046  0.28391063     0.84800
O989        O  0.12112251  0.59505672  0.26389695    -0.65800
Ni990      Ni  0.23274470  0.63641769  0.16054617     1.27400
Ni991      Ni  0.14794983  0.66889489  0.14920802     1.26100
H992        H  0.11884520  0.61036104  0.16914071     0.39300
C993        C  0.09229965  0.60832204  0.33071517    -0.01000
C994        C  0.07798530  0.63649907  0.35444899    -0.09000
C995        C  0.07967695  0.63396140  0.39813274    -0.17900
C996        C  0.09578005  0.60310659  0.41948172     0.04500
C997        C  0.11105499  0.57526143  0.39499251     0.18700
C998        C  0.10819907  0.57755155  0.35155592    -0.19300
C999        C  0.13076989  0.54602872  0.41353725    -0.20600
C1000       C  0.13664056  0.54423047  0.45576332    -0.19100
C1001       C  0.12132515  0.57073231  0.48102613     0.20100
C1002       C  0.09910540  0.59962461  0.46378151     0.02200
C1003       C  0.08133517  0.62356331  0.49170893    -0.13800
C1004       C  0.08792288  0.62053605  0.53416693    -0.11600
C1005       C  0.11404647  0.59508526  0.54952872     0.01800
C1006       C  0.12917321  0.56911975  0.52314517    -0.23700
H1007       H  0.06665372  0.66114283  0.33901481     0.09800
H1008       H  0.06975639  0.65705152  0.41431421     0.13300
H1009       H  0.11977782  0.55577897  0.33354785     0.12100
H1010       H  0.14313225  0.52539328  0.39459442     0.13200
H1011       H  0.15344774  0.52213953  0.46882846     0.12300
H1012       H  0.06227779  0.64484333  0.48151840     0.09400
H1013       H  0.07421719  0.63981687  0.55436411     0.12600
H1014       H  0.14813478  0.54822382  0.53494187     0.14500
C1015       C  0.20255385  0.67132354  0.82717902    -0.01000
C1016       C  0.18829581  0.64295112  0.85681418    -0.09000
C1017       C  0.18930120  0.64501960  0.89944770    -0.17900
C1018       C  0.20530475  0.67568993  0.91431638     0.04500
C1019       C  0.22159567  0.70400068  0.88420467     0.18700
C1020       C  0.21916833  0.70213271  0.84081088    -0.19300
C1021       C  0.23976907  0.73383856  0.89784090    -0.20600
C1022       C  0.24070975  0.73677492  0.94079451    -0.19100
C1023       C  0.22276107  0.71038372  0.97117334     0.20100
C1024       C  0.20525686  0.67918921  0.95806515     0.02200
C1025       C  0.18846107  0.65251332  0.98933389    -0.13800
C1026       C  0.18810387  0.65692433  0.03157522    -0.11600
C1027       C  0.20508356  0.68743196  0.04462228     0.01800
C1028       C  0.22276411  0.71424503  0.01458580    -0.23700
H1029       H  0.17403035  0.61976994  0.84697503     0.09800
H1030       H  0.17632164  0.62237519  0.91976709     0.13300
H1031       H  0.22992454  0.72448165  0.81786770     0.12100
H1032       H  0.25301496  0.75524028  0.87518176     0.13200
H1033       H  0.25500136  0.76016124  0.95029686     0.12300
H1034       H  0.17530273  0.62768759  0.98263312     0.09400
H1035       H  0.17506949  0.63561209  0.05459110     0.12600
H1036       H  0.23693966  0.73736610  0.02485171     0.14500
C1037       C  0.07835100  0.63946507  0.82049591    -0.01000
C1038       C  0.08864264  0.61370990  0.85256768    -0.09000
C1039       C  0.09677856  0.62453360  0.89103986    -0.17900
C1040       C  0.09594589  0.66188798  0.89836360     0.04500
C1041       C  0.08968704  0.68822685  0.86420130     0.18700
C1042       C  0.08003448  0.67685994  0.82621321    -0.19300
C1043       C  0.09045094  0.72569453  0.86915044    -0.20600
C1044       C  0.09499961  0.73750742  0.90808509    -0.19100
C1045       C  0.09784600  0.71215471  0.94316774     0.20100
C1046       C  0.09863697  0.67393704  0.93888973     0.02200
C1047       C  0.09793397  0.64949319  0.97606991    -0.13800
C1048       C  0.09079926  0.66239528  0.01571733    -0.11600
C1049       C  0.08586698  0.69997605  0.01922644     0.01800
C1050       C  0.09478910  0.72470253  0.98320934    -0.23700
H1051       H  0.58920424  0.58297160  0.85089240     0.09800
H1052       H  0.60396727  0.60198595  0.91640846     0.13300
H1053       H  0.07114247  0.69716405  0.80240322     0.12100
H1054       H  0.08619590  0.74598334  0.84311523     0.13200
H1055       H  0.09354412  0.76665529  0.91141492     0.12300
H1056       H  0.59987921  0.61969999  0.97699600     0.09400
H1057       H  0.58503471  0.64259174  0.04390843     0.12600
H1058       H  0.09198336  0.75391058  0.98595197     0.14500
C1059       C  0.18930310  0.54529391  0.84659652    -0.01000
C1060       C  0.15504868  0.04219083  0.87708092    -0.09000
C1061       C  0.15745380  0.04487257  0.91987287    -0.17900
C1062       C  0.19618147  0.54824571  0.93302754     0.04500
C1063       C  0.22710763  0.55856613  0.90187331     0.18700
C1064       C  0.22290702  0.55855704  0.85886492    -0.19300
C1065       C  0.26276447  0.56575834  0.91382811    -0.20600
C1066       C  0.26884341  0.56121968  0.95600928    -0.19100
C1067       C  0.24000337  0.54762397  0.98698552     0.20100
C1068       C  0.19892489  0.04403553  0.97810529     0.02200
C1069       C  0.17014462  0.03134994  0.01051588    -0.13800
C1070       C  0.17815040  0.02317919  0.05223090    -0.11600
C1071       C  0.21487139  0.02771329  0.06323047     0.01800
C1072       C  0.24834526  0.53956426  0.02856379    -0.23700
H1073       H  0.12867462  0.03251549  0.86785531     0.09800
H1074       H  0.13162315  0.04038313  0.94093183     0.13300
H1075       H  0.24783065  0.56184168  0.83582436     0.12100
H1076       H  0.28629745  0.57435148  0.89036023     0.13200
H1077       H  0.29668139  0.56740749  0.96433734     0.12300
H1078       H  0.14134054  0.02677650  0.00445022     0.09400
H1079       H  0.15532939  0.01354103  0.07606560     0.12600
H1080       H  0.27685092  0.54478219  0.03534869     0.14500
C1081       C  0.30007274  0.56237564  0.36973168    -0.01000
C1082       C  0.30184248  0.52844873  0.39376837    -0.09000
C1083       C  0.30062643  0.52612256  0.43736078    -0.17900
C1084       C  0.29945290  0.55805570  0.45861134     0.04500
C1085       C  0.30300237  0.59258835  0.43388517     0.18700
C1086       C  0.30340570  0.59450696  0.38960723    -0.19300
C1087       C  0.30344033  0.62486196  0.45386740    -0.20600
C1088       C  0.30096660  0.62345753  0.49774038    -0.19100
C1089       C  0.29594916  0.58983187  0.52286413     0.20100
C1090       C  0.29430048  0.55676947  0.50347928     0.02200
C1091       C  0.28652843  0.52376502  0.52977062    -0.13800
C1092       C  0.28211936  0.52328399  0.57340812    -0.11600
C1093       C  0.28537128  0.55554171  0.59283766     0.01800
C1094       C  0.29196700  0.58892011  0.56723171    -0.23700
H1095       H  0.29731390  0.50344502  0.37973921     0.09800
H1096       H  0.29987442  0.49882827  0.45344457     0.13300
H1097       H  0.30136326  0.62096379  0.37153017     0.12100
H1098       H  0.30522229  0.65138270  0.43545810     0.13200
H1099       H  0.30184520  0.64892164  0.51213665     0.12300
H1100       H  0.28303589  0.49775557  0.51767394     0.09400
H1101       H  0.27607083  0.49715495  0.59176546     0.12600
H1102       H  0.29419623  0.61415698  0.58180337     0.14500
C1103       C  0.44511594  0.57946242  0.56249571    -0.01000
C1104       C  0.47540328  0.59815693  0.53770943    -0.09000
C1105       C  0.47895850  0.59868762  0.49411691    -0.17900
C1106       C  0.45189029  0.58082464  0.47402162     0.04500
C1107       C  0.42119120  0.56208129  0.49955357     0.18700
C1108       C  0.41839364  0.56109383  0.54329398    -0.19300
C1109       C  0.39304450  0.54492859  0.48131005    -0.20600
C1110       C  0.39442590  0.54652644  0.43790387    -0.19100
C1111       C  0.42393476  0.56480211  0.41192023     0.20100
C1112       C  0.45359209  0.58161981  0.42952901     0.02200
C1113       C  0.48329745  0.59893008  0.40179841    -0.13800
C1114       C  0.48215474  0.60153851  0.35852285    -0.11600
C1115       C  0.45142808  0.58699248  0.34152194     0.01800
C1116       C  0.42322508  0.56727544  0.36831295    -0.23700
H1117       H  0.49620955  0.61289960  0.55197691     0.09800
H1118       H  0.50261579  0.61406460  0.47713920     0.13300
H1119       H  0.39454701  0.54699269  0.56231724     0.12100
H1120       H  0.36986504  0.53030284  0.50074330     0.13200
H1121       H  0.37263814  0.53317408  0.42425047     0.12300
H1122       H  0.50716338  0.61165646  0.41250484     0.09400
H1123       H  0.50442759  0.61690944  0.33845021     0.12600
H1124       H  0.39938499  0.55577456  0.35548343     0.14500
C1125       C  0.34526362  0.68845515  0.06517742    -0.01000
C1126       C  0.37014214  0.71377467  0.04067897    -0.09000
C1127       C  0.37121212  0.71772611  0.99672649    -0.17900
C1128       C  0.34803674  0.69559367  0.97601452     0.04500
C1129       C  0.31959293  0.67363907  0.00117995     0.18700
C1130       C  0.31811371  0.67066019  0.04524685    -0.19300
C1131       C  0.29454886  0.65279511  0.98220725    -0.20600
C1132       C  0.29886527  0.65141239  0.93876091    -0.19100
C1133       C  0.32951926  0.66899876  0.91362054     0.20100
C1134       C  0.35376770  0.69237254  0.93173885     0.02200
C1135       C  0.38467252  0.70907436  0.90548170    -0.13800
C1136       C  0.39258573  0.70120837  0.86394462    -0.11600
C1137       C  0.37006061  0.67651747  0.84654406     0.01800
C1138       C  0.33753161  0.66155690  0.87119968    -0.23700
H1139       H  0.39054926  0.72880424  0.05517708     0.09800
H1140       H  0.39165448  0.73704630  0.97976868     0.13300
H1141       H  0.29784760  0.65170078  0.06373144     0.12100
H1142       H  0.27209636  0.63667596  0.00118302     0.13200
H1143       H  0.27909578  0.63524186  0.92493335     0.12300
H1144       H  0.40461170  0.72667699  0.91674307     0.09400
H1145       H  0.41774669  0.71353496  0.84586406     0.12600
H1146       H  0.31962199  0.64268734  0.85820266     0.14500
C1147       C  0.34459939  0.51371915  0.87843256    -0.01000
C1148       C  0.36830055  0.54044827  0.89067252    -0.09000
C1149       C  0.37291673  0.54202337  0.93382853    -0.17900
C1150       C  0.35347039  0.51706033  0.96597512     0.04500
C1151       C  0.32799370  0.98954608  0.95609305     0.18700
C1152       C  0.32582449  0.98766170  0.91336411    -0.19300
C1153       C  0.30574099  0.96510570  0.98481328    -0.20600
C1154       C  0.30661682  0.96543501  0.02751962    -0.19100
C1155       C  0.32922203  0.99084977  0.04280040     0.20100
C1156       C  0.35526666  0.51773591  0.01056397     0.02200
C1157       C  0.37600110  0.54411898  0.02824817    -0.13800
C1158       C  0.37553646  0.54369405  0.07234501    -0.11600
C1159       C  0.35428763  0.51714822  0.10003303     0.01800
C1160       C  0.32772258  0.99102587  0.08642899    -0.23700
H1161       H  0.38255481  0.56056953  0.86720340     0.09800
H1162       H  0.39124088  0.56328692  0.94138406     0.13300
H1163       H  0.30884975  0.96573723  0.90453799     0.12100
H1164       H  0.28673612  0.94602401  0.97423066     0.13200
H1165       H  0.28879087  0.94610071  0.04880670     0.12300
H1166       H  0.39229483  0.56552671  0.00868352     0.09400
H1167       H  0.39143657  0.56450836  0.08469425     0.12600
H1168       H  0.31019936  0.97078813  0.10670724     0.14500
C1169       C  0.40540850  0.70749251  0.32905541    -0.01000
C1170       C  0.37908412  0.69246754  0.36229956    -0.09000
C1171       C  0.39021168  0.68175909  0.40232589    -0.17900
C1172       C  0.42807407  0.68644725  0.41073250     0.04500
C1173       C  0.45537593  0.69750886  0.37578650     0.18700
C1174       C  0.44394641  0.70761349  0.33549341    -0.19300
C1175       C  0.49341435  0.70203543  0.38204581    -0.20600
C1176       C  0.50422040  0.69987194  0.42256954    -0.19100
C1177       C  0.47733545  0.69277418  0.45790103     0.20100
C1178       C  0.43916699  0.68436223  0.45269075     0.02200
C1179       C  0.41311863  0.67859934  0.48974061    -0.13800
C1180       C  0.42292210  0.68779301  0.52870819    -0.11600
C1181       C  0.45929649  0.70128050  0.53212532     0.01800
C1182       C  0.48741872  0.69865312  0.49793470    -0.23700
H1183       H  0.34922528  0.69139045  0.35811644     0.09800
H1184       H  0.36826263  0.67212456  0.42679662     0.13300
H1185       H  0.46466652  0.71951807  0.31043681     0.12100
H1186       H  0.51452180  0.70965852  0.35554452     0.13200
H1187       H  0.53325858  0.70671924  0.42633275     0.12300
H1188       H  0.38399204  0.67068718  0.48878328     0.09400
H1189       H  0.40062768  0.68903993  0.55451707     0.12600
H1190       H  0.51581281  0.70858960  0.50040038     0.14500
C1191       C  0.46605267  0.92297778  0.55380878    -0.01000
C1192       C  0.48495180  0.89205574  0.53977199    -0.09000
C1193       C  0.48788106  0.88566999  0.49722468    -0.17900
C1194       C  0.47377671  0.91124293  0.46689022     0.04500
C1195       C  0.45942216  0.94477814  0.48060731     0.18700
C1196       C  0.45511097  0.95015201  0.52365720    -0.19300
C1197       C  0.44791497  0.97222290  0.45150106    -0.20600
C1198       C  0.44694016  0.96617176  0.40964139    -0.19100
C1199       C  0.45773475  0.93229272  0.39579687     0.20100
C1200       C  0.47252664  0.90466200  0.42379466     0.02200
C1201       C  0.48404390  0.87130078  0.40770052    -0.13800
C1202       C  0.48004771  0.86538824  0.36599363    -0.11600
C1203       C  0.46373596  0.89207556  0.33934034     0.01800
C1204       C  0.45300601  0.92562575  0.35434030    -0.23700
H1205       H  0.49535664  0.87146578  0.56220730     0.09800
H1206       H  0.50057571  0.86015791  0.48920167     0.13300
H1207       H  0.44135874  0.97475237  0.53386108     0.12100
H1208       H  0.43917168  0.99832696  0.46154227     0.13200
H1209       H  0.43660845  0.98774176  0.38825344     0.12300
H1210       H  0.49555975  0.84900819  0.42678098     0.09400
H1211       H  0.48843823  0.83922127  0.35500460     0.12600
H1212       H  0.44051848  0.94647943  0.33375892     0.14500
C1213       C  0.34756546  0.83578103  0.83727662    -0.01000
C1214       C  0.33895644  0.80640416  0.86831579    -0.09000
C1215       C  0.33970574  0.81121603  0.91110505    -0.17900
C1216       C  0.35069822  0.84535255  0.92363948     0.04500
C1217       C  0.35941058  0.87470559  0.89156975     0.18700
C1218       C  0.35724675  0.86973234  0.84938429    -0.19300
C1219       C  0.37219915  0.90853366  0.90126147    -0.20600
C1220       C  0.37669847  0.91408343  0.94240823    -0.19100
C1221       C  0.36767650  0.88629679  0.97500916     0.20100
C1222       C  0.35485736  0.85131736  0.96630272     0.02200
C1223       C  0.34822808  0.82370802  0.00049602    -0.13800
C1224       C  0.35487081  0.83052127  0.04122541    -0.11600
C1225       C  0.36685540  0.86528239  0.04927824     0.01800
C1226       C  0.37270669  0.89310519  0.01619797    -0.23700
H1227       H  0.33225228  0.77961845  0.85943016     0.09800
H1228       H  0.33275627  0.78754711  0.93344228     0.13300
H1229       H  0.36592505  0.89190442  0.82555905     0.12100
H1230       H  0.37957172  0.93068884  0.87666125     0.13200
H1231       H  0.38783832  0.94022437  0.94872603     0.12300
H1232       H  0.33864050  0.79649791  0.99658744     0.09400
H1233       H  0.35034184  0.80862208  0.06663960     0.12600
H1234       H  0.38257363  0.91984513  0.02236199     0.14500
C1235       C  0.33152645  0.91411213  0.35234614    -0.01000
C1236       C  0.34308072  0.94655826  0.36684397    -0.09000
C1237       C  0.35679099  0.94578079  0.40601778    -0.17900
C1238       C  0.36203882  0.91206648  0.42981529     0.04500
C1239       C  0.35996491  0.87952183  0.40949172     0.18700
C1240       C  0.34338384  0.88055774  0.37145939    -0.19300
C1241       C  0.37055588  0.84598578  0.42959576    -0.20600
C1242       C  0.37841831  0.84357735  0.47135448    -0.19100
C1243       C  0.37249238  0.87393226  0.49459153     0.20100
C1244       C  0.36539979  0.90898443  0.47392676     0.02200
C1245       C  0.35571357  0.93791924  0.49924896    -0.13800
C1246       C  0.34607057  0.93038177  0.54288423    -0.11600
C1247       C  0.34824636  0.89443766  0.56209963     0.01800
C1248       C  0.36721018  0.86808273  0.53872787    -0.23700
H1249       H  0.33735453  0.97266185  0.34998675     0.09800
H1250       H  0.36180836  0.97162755  0.41780867     0.13300
H1251       H  0.33581603  0.85519189  0.35960840     0.12100
H1252       H  0.37074354  0.82120439  0.41375826     0.13200
H1253       H  0.38450569  0.81686046  0.48683164     0.12300
H1254       H  0.35022248  0.96530373  0.48562709     0.09400
H1255       H  0.33229107  0.95152009  0.56029523     0.12600
H1256       H  0.37017086  0.84052920  0.55388569     0.14500
C1257       C  0.10348647  0.91737123  0.32704216    -0.01000
C1258       C  0.07968915  0.89473085  0.35659299    -0.09000
C1259       C  0.08203982  0.89460728  0.39984137    -0.17900
C1260       C  0.10925773  0.91647475  0.41512384     0.04500
C1261       C  0.13346923  0.93923855  0.38506356     0.18700
C1262       C  0.12936068  0.94054589  0.34182285    -0.19300
C1263       C  0.16245807  0.95969689  0.39819597    -0.20600
C1264       C  0.16779336  0.95829218  0.44058101    -0.19100
C1265       C  0.14335264  0.93751111  0.47122934     0.20100
C1266       C  0.11372629  0.91626855  0.45896746     0.02200
C1267       C  0.08991253  0.89577261  0.49115987    -0.13800
C1268       C  0.09491358  0.89667880  0.53358432    -0.11600
C1269       C  0.12417949  0.91757686  0.54567787     0.01800
C1270       C  0.14836211  0.93791844  0.51412705    -0.23700
H1271       H  0.05971548  0.87627583  0.34619921     0.09800
H1272       H  0.06308037  0.87610622  0.42038994     0.13300
H1273       H  0.14770561  0.95845270  0.31939297     0.12100
H1274       H  0.18111728  0.97710395  0.37555310     0.13200
H1275       H  0.19060046  0.97441452  0.44954925     0.12300
H1276       H  0.06721636  0.87863409  0.48458499     0.09400
H1277       H  0.07602038  0.88027373  0.55702359     0.12600
H1278       H  0.17127380  0.95403804  0.52288811     0.14500
C1279       C  0.21664476  0.84729373  0.04765471    -0.01000
C1280       C  0.19411191  0.81767327  0.04005621    -0.09000
C1281       C  0.19091072  0.80913091  0.99926378    -0.17900
C1282       C  0.21067885  0.82966720  0.96406666     0.04500
C1283       C  0.23624172  0.85748595  0.97175126     0.18700
C1284       C  0.23870482  0.86638245  0.01324265    -0.19300
C1285       C  0.25844132  0.87672580  0.93779447    -0.20600
C1286       C  0.25417622  0.87067006  0.89650197    -0.19100
C1287       C  0.22740766  0.84527002  0.88797694     0.20100
C1288       C  0.20551573  0.82404178  0.92156865     0.02200
C1289       C  0.17843302  0.79915172  0.91106854    -0.13800
C1290       C  0.17233719  0.79677514  0.86912178    -0.11600
C1291       C  0.19253973  0.81913042  0.83633918     0.01800
C1292       C  0.22124886  0.84219944  0.84599776    -0.23700
H1293       H  0.17746901  0.80156799  0.06580468     0.09800
H1294       H  0.17242139  0.78645054  0.99637076     0.13300
H1295       H  0.25699802  0.88868640  0.01857850     0.12100
H1296       H  0.27929504  0.89662260  0.94298663     0.13200
H1297       H  0.27129206  0.88669305  0.87101418     0.12300
H1298       H  0.16082321  0.78184373  0.93455143     0.09400
H1299       H  0.15067598  0.77841428  0.86225159     0.12600
H1300       H  0.23746529  0.85953853  0.82094247     0.14500
C1301       C  0.96523639  0.82509649  0.82689444    -0.01000
C1302       C  0.44927974  0.79869988  0.85810805    -0.09000
C1303       C  0.43992763  0.80652828  0.89956315    -0.17900
C1304       C  0.94892812  0.83991292  0.91137637     0.04500
C1305       C  0.96146080  0.86849136  0.87949454     0.18700
C1306       C  0.96801038  0.86116918  0.83711827    -0.19300
C1307       C  0.97280567  0.90238481  0.89069479    -0.20600
C1308       C  0.97847902  0.90619294  0.93225288    -0.19100
C1309       C  0.97179585  0.87648044  0.96326512     0.20100
C1310       C  0.95336226  0.84435347  0.95418923     0.02200
C1311       C  0.44610336  0.81687600  0.98847369    -0.13800
C1312       C  0.46251502  0.81763782  0.02592054    -0.11600
C1313       C  0.98653176  0.84472579  0.02969309     0.01800
C1314       C  0.98802755  0.87648996  0.00120906    -0.23700
H1315       H  0.44514169  0.77105667  0.85037153     0.09800
H1316       H  0.42769902  0.78455173  0.92160366     0.13300
H1317       H  0.98136549  0.88193988  0.81366364     0.12100
H1318       H  0.98119987  0.92473132  0.86669484     0.13200
H1319       H  0.99119577  0.93135696  0.93939994     0.12300
H1320       H  0.43051316  0.79238349  0.98504403     0.09400
H1321       H  0.46067368  0.79353776  0.04842262     0.12600
H1322       H  0.00674331  0.89885649  0.00546255     0.14500
C1323       C  0.12823382  0.74037859  0.52599303    -0.01000
C1324       C  0.13121888  0.70902170  0.50475304    -0.09000
C1325       C  0.14467157  0.71132595  0.46185639    -0.17900
C1326       C  0.15395479  0.74585193  0.43888613     0.04500
C1327       C  0.15417865  0.77708095  0.46180611     0.18700
C1328       C  0.14325070  0.77362413  0.50534977    -0.19300
C1329       C  0.16045507  0.81224616  0.44059448    -0.20600
C1330       C  0.16150724  0.81761887  0.39699942    -0.19100
C1331       C  0.15815209  0.78771940  0.37375393     0.20100
C1332       C  0.15794443  0.75124994  0.39393555     0.02200
C1333       C  0.15750524  0.72201718  0.36846316    -0.13800
C1334       C  0.15013130  0.72870247  0.32659220    -0.11600
C1335       C  0.14306032  0.76447569  0.30942607     0.01800
C1336       C  0.15055289  0.79402836  0.33161968    -0.23700
H1337       H  0.12065694  0.68332620  0.52073100     0.09800
H1338       H  0.14398105  0.68631903  0.44684367     0.13300
H1339       H  0.14087142  0.79806439  0.52197601     0.12100
H1340       H  0.16094878  0.83610279  0.45798117     0.13200
H1341       H  0.16266922  0.84543918  0.38169297     0.12300
H1342       H  0.16007273  0.69372247  0.38083965     0.09400
H1343       H  0.14495439  0.70553102  0.30942227     0.12600
H1344       H  0.14540526  0.82173198  0.31813995     0.14500
N1345       N  0.61771048  0.27154615  0.23730124    -0.03200
C1346       C  0.60806389  0.27370426  0.27926370    -0.00600
C1347       C  0.57032686  0.26491720  0.29129670    -0.23500
C1348       C  0.55759525  0.25091701  0.25775359    -0.23700
C1349       C  0.58878483  0.25044531  0.22735541    -0.00700
H1350       H  0.55617151  0.26192435  0.32317083     0.13100
H1351       H  0.53166062  0.23498221  0.25974231     0.13100
N1352       N  0.61004811  0.24060816  0.60437310    -0.03200
C1353       C  0.59719713  0.23660726  0.56699400    -0.00600
C1354       C  0.56497582  0.25807530  0.56378568    -0.23500
C1355       C  0.56067257  0.27815822  0.59794556    -0.23700
C1356       C  0.58906757  0.26695771  0.62211454    -0.00700
H1357       H  0.55121354  0.26442363  0.53549962     0.13100
H1358       H  0.54235971  0.30161917  0.60156782     0.13100
N1359       N  0.50072473  0.33259897  0.75079721    -0.03200
C1360       C  0.49178533  0.31327109  0.78909254    -0.00600
C1361       C  0.51242700  0.28153276  0.79308736    -0.23500
C1362       C  0.53815484  0.28332365  0.75814398    -0.23700
C1363       C  0.53391156  0.31741145  0.73546499    -0.00700
H1364       H  0.51210621  0.26169903  0.82052892     0.13100
H1365       H  0.56278725  0.26583004  0.75586326     0.13100
N1366       N  0.52935995  0.34286691  0.08756310    -0.03200
C1367       C  0.52522929  0.34181296  0.04624686    -0.00600
C1368       C  0.56009027  0.33854519  0.02300051    -0.23500
C1369       C  0.58680114  0.33929073  0.05056049    -0.23700
C1370       C  0.56729550  0.34322683  0.08967135    -0.00700
H1371       H  0.56558082  0.33831053  0.98915220     0.13100
H1372       H  0.61720410  0.34033858  0.04214577     0.13100
O1373       O  0.65331479  0.30374353  0.78647578    -0.80600
O1374       O  0.61196131  0.39124999  0.61682106    -0.65300
O1375       O  0.65864914  0.33105918  0.70007961    -1.11900
C1376       C  0.68826368  0.44879709  0.74059207     1.06300
O1377       O  0.66445141  0.42449195  0.60057148    -0.78500
O1378       O  0.72346812  0.42542863  0.64833150    -0.66100
Ni1379     Ni  0.62968158  0.29502532  0.73642955     1.34900
C1380       C  0.73780406  0.39476548  0.66017781     0.85000
O1381       O  0.62173856  0.31975780  0.63147973    -0.79100
O1382       O  0.60395597  0.28098766  0.68912916    -0.89300
C1383       C  0.63518162  0.40929711  0.58962589     0.84600
O1384       O  0.59505415  0.33260857  0.74940016    -0.67500
O1385       O  0.67864020  0.46358877  0.70575169    -0.86800
C1386       C  0.57004872  0.33907758  0.72494027     0.85400
C1387       C  0.60539519  0.29074661  0.64944488     1.07000
H1388       H  0.62379169  0.40905405  0.70333533     0.38800
O1389       O  0.64629616  0.40043797  0.68749463    -1.09500
O1390       O  0.72079140  0.37180109  0.68803809    -0.66100
Ni1391     Ni  0.67494033  0.37222191  0.72549157     1.26300
O1392       O  0.58012508  0.35480450  0.68811688    -0.66400
O1393       O  0.69107186  0.41417612  0.74900569    -0.78700
C1394       C  0.68303225  0.32078202  0.79336089     0.84800
O1395       O  0.70087556  0.34284560  0.76509745    -0.65800
Ni1396     Ni  0.67132128  0.44220778  0.65456627     1.27400
Ni1397     Ni  0.63273503  0.36045675  0.65912884     1.26100
H1398       H  0.67991740  0.31903217  0.68575971     0.39300
O1399       O  0.73208027  0.38513003  0.09930534    -0.80600
O1400       O  0.63100393  0.43313693  0.25435794    -0.65300
O1401       O  0.69853664  0.38020584  0.18394941    -1.11900
C1402       C  0.58641989  0.35412108  0.12484811     1.06300
O1403       O  0.59098958  0.38611995  0.26601042    -0.78500
O1404       O  0.59133801  0.32829252  0.21943196    -0.66100
Ni1405     Ni  0.74368809  0.40006847  0.15370070     1.34900
C1406       C  0.62065727  0.30822610  0.21518106     0.85000
O1407       O  0.70552680  0.41979369  0.25077159    -0.79100
O1408       O  0.75876955  0.41318700  0.20692462    -0.89300
C1409       C  0.60906521  0.41177624  0.27960500     0.84600
O1410       O  0.72628162  0.44931782  0.13871024    -0.67500
O1411       O  0.56780734  0.37042085  0.15402718    -0.86800
C1412       C  0.70004139  0.46987862  0.15397432     0.85400
C1413       C  0.74162038  0.41865583  0.24315941     1.07000
H1414       H  0.62471473  0.41712035  0.16410183     0.38800
O1415       O  0.62911297  0.39614103  0.18369055    -1.09500
O1416       O  0.65167018  0.32011983  0.19410684    -0.66100
Ni1417     Ni  0.66079703  0.36367247  0.15346673     1.26300
O1418       O  0.67511659  0.45733674  0.18397703    -0.66400
O1419       O  0.62187366  0.34786460  0.12301242    -0.78700
C1420       C  0.71702447  0.35478703  0.09229490     0.84800
O1421       O  0.69610186  0.33616030  0.12139111    -0.65800
Ni1422     Ni  0.58064214  0.37922856  0.20894622     1.27400
Ni1423     Ni  0.66640792  0.40944868  0.21764706     1.26100
H1424       H  0.70619177  0.35964650  0.20234415     0.39300
N1425       N  0.79984619  0.41355926  0.28498909    -0.03200
C1426       C  0.80460788  0.41905874  0.32531810    -0.00600
C1427       C  0.77127346  0.43116163  0.34574653    -0.23500
C1428       C  0.74533756  0.43357539  0.31708369    -0.23700
C1429       C  0.76322151  0.42303715  0.27975363    -0.00700
H1430       H  0.76644704  0.43784560  0.37800391     0.13100
H1431       H  0.71622749  0.44175648  0.32285566     0.13100
N1432       N  0.80479723  0.39939286  0.62145776    -0.03200
C1433       C  0.81953695  0.38247698  0.58724162    -0.00600
C1434       C  0.79616513  0.35407711  0.58032240    -0.23500
C1435       C  0.76591642  0.35326016  0.61050478    -0.23700
C1436       C  0.77133211  0.38127824  0.63491099    -0.00700
H1437       H  0.79938808  0.33738729  0.55417478     0.13100
H1438       H  0.74076431  0.33626817  0.61204083     0.13100
O1439       O  0.92438935  0.44415878  0.60064505    -0.80600
O1440       O  0.83887977  0.35546886  0.75994310    -0.65300
O1441       O  0.91057040  0.41249495  0.68436704    -1.11900
C1442       C  0.93791720  0.29480520  0.63383767     1.06300
O1443       O  0.88178429  0.31340403  0.77414255    -0.78500
O1444       O  0.94941068  0.30925279  0.72901353    -0.66100
Ni1445     Ni  0.89768781  0.45726763  0.65368910     1.34900
C1446       C  0.97139595  0.33728463  0.72274874     0.85000
O1447       O  0.85720898  0.42558878  0.75085801    -0.79100
O1448       O  0.87132923  0.47514186  0.70490867    -0.89300
C1449       C  0.85487035  0.33434435  0.78627266     0.84600
O1450       O  0.85253024  0.43865041  0.63517841    -0.67500
O1451       O  0.91646037  0.28041381  0.66581208    -0.86800
C1452       C  0.83005071  0.41218526  0.64928117     0.85400
C1453       C  0.85849170  0.45998368  0.74156439     1.07000
H1454       H  0.87059930  0.34055826  0.67185647     0.38800
O1455       O  0.88938575  0.34536542  0.69024590    -1.09500
O1456       O  0.96633034  0.36433015  0.69587684    -0.66100
Ni1457     Ni  0.92915493  0.37151458  0.65583337     1.26300
O1458       O  0.83238367  0.39329241  0.68462397    -0.66400
O1459       O  0.94691698  0.32899537  0.62860780    -0.78700
C1460       C  0.95274412  0.42349400  0.59143285     0.84800
O1461       O  0.96518786  0.40075400  0.61909769    -0.65800
Ni1462     Ni  0.89878859  0.29880316  0.71881680     1.27400
Ni1463     Ni  0.87262894  0.38530989  0.72092388     1.26100
H1464       H  0.92939368  0.41940468  0.70172596     0.39300
O1465       O  0.98355127  0.36241071  0.26894227    -0.80600
O1466       O  0.89774258  0.35025578  0.10607178    -0.65300
O1467       O  0.95094455  0.38141180  0.19368803    -1.11900
C1468       C  0.82912430  0.40399418  0.25354330     1.06300
O1469       O  0.86660129  0.40244898  0.10112701    -0.78500
O1470       O  0.88747143  0.44615340  0.15770402    -0.66100
Ni1471     Ni  0.98878934  0.34722585  0.21273491     1.34900
C1472       C  0.89377444  0.45948873  0.19112375     0.85000
O1473       O  0.96985665  0.36145740  0.11286016    -0.79100
O1474       O  0.00202475  0.32893978  0.15829327    -0.89300
C1475       C  0.87824073  0.37317196  0.08585305     0.84600
O1476       O  0.95075262  0.31049926  0.23054821    -0.67500
O1477       O  0.82665738  0.41642734  0.21534321    -0.86800
C1478       C  0.92568508  0.29930988  0.20939151     0.85400
C1479       C  0.99900768  0.34406520  0.12133745     1.07000
H1480       H  0.86567426  0.35013656  0.19040755     0.38800
O1481       O  0.88035738  0.37255136  0.18375859    -1.09500
O1482       O  0.90223916  0.43810179  0.22231698    -0.66100
Ni1483     Ni  0.90482039  0.38430488  0.23103880     1.26300
O1484       O  0.92218293  0.31340691  0.17189699    -0.66400
O1485       O  0.85755514  0.38583932  0.26493590    -0.78700
C1486       C  0.96026001  0.38136724  0.29075775     0.84800
O1487       O  0.92955000  0.39370402  0.27839414    -0.65800
Ni1488     Ni  0.84926060  0.40893361  0.15942689     1.27400
Ni1489     Ni  0.92491902  0.36525782  0.14909770     1.26100
H1490       H  0.96209253  0.40543952  0.18532375     0.39300
N1491       N  0.90641897  0.23996114  0.25148383    -0.03200
C1492       C  0.88560915  0.23543611  0.29013150    -0.00600
C1493       C  0.86053992  0.26414442  0.29377211    -0.23500
C1494       C  0.86748092  0.28745627  0.25742656    -0.23700
C1495       C  0.89685840  0.27288831  0.23211486    -0.00700
H1496       H  0.84278983  0.27020214  0.32190620     0.13100
H1497       H  0.85668908  0.31504448  0.25368279     0.13100
N1498       N  0.94966804  0.23518878  0.59702514    -0.03200
C1499       C  0.96016601  0.23023483  0.55555886    -0.00600
C1500       C  0.97029969  0.26345962  0.53278579    -0.23500
C1501       C  0.96467339  0.28970087  0.55977087    -0.23700
C1502       C  0.95188651  0.27243395  0.59891591    -0.00700
H1503       H  0.97701534  0.26863993  0.49893936     0.13100
H1504       H  0.96609346  0.31869343  0.55062832     0.10700
N1505       N  0.85807813  0.00527938  0.80204998    -0.03200
C1506       C  0.83230643  0.01161680  0.83566218    -0.00600
C1507       C  0.79816841  0.49396929  0.82665245    -0.23500
C1508       C  0.80448403  0.47350897  0.79356702    -0.23700
C1509       C  0.84086508  0.48148247  0.77550954    -0.00700
H1510       H  0.77307416  0.49187331  0.84913981     0.13100
H1511       H  0.78486594  0.45425199  0.78396461     0.13100
N1512       N  0.87695357  0.02540761  0.16971530    -0.03200
C1513       C  0.84755531  0.01682294  0.14872747    -0.00600
C1514       C  0.82332572  0.49890741  0.17350590    -0.23500
C1515       C  0.83961729  0.49266630  0.21046324    -0.23700
C1516       C  0.87819514  0.49707943  0.19805696    -0.00700
H1517       H  0.79715642  0.48641076  0.16776827     0.13100
H1518       H  0.82681374  0.47654298  0.23834855     0.13100
O1519       O  0.90980022  0.17811443  0.78430375    -0.80600
O1520       O  0.95555264  0.10336050  0.62257566    -0.65300
O1521       O  0.90239752  0.15522910  0.70664417    -1.11900
C1522       C  0.88204222  0.03364815  0.77794508     1.06300
O1523       O  0.91297540  0.05852050  0.63060953    -0.78500
O1524       O  0.85675853  0.05038365  0.69368304    -0.66100
Ni1525     Ni  0.92743516  0.19467280  0.72643501     1.34900
C1526       C  0.83311955  0.07540266  0.70289009     0.85000
O1527       O  0.93655190  0.17392714  0.62487950    -0.79100
O1528       O  0.94484781  0.21562009  0.66946815    -0.89300
C1529       C  0.93768196  0.07893297  0.60760077     0.84600
O1530       O  0.97516209  0.17082711  0.73403513    -0.67500
O1531       O  0.90613392  0.02406504  0.74858114    -0.86800
C1532       C  0.99399917  0.14862741  0.71197537     0.85400
C1533       C  0.94294830  0.20684308  0.63212766     1.07000
H1534       H  0.94511835  0.08495475  0.71866727     0.38800
O1535       O  0.92219704  0.08914051  0.70553579    -1.09500
O1536       O  0.84285319  0.10476140  0.71782236    -0.66100
Ni1537     Ni  0.88869776  0.11240561  0.74520427     1.26300
O1538       O  0.98112595  0.13607792  0.68084137    -0.66400
O1539       O  0.87431863  0.06753845  0.78190784    -0.78700
C1540       C  0.87728419  0.16578105  0.80098963     0.84800
O1541       O  0.86006396  0.14089750  0.78489444    -0.65800
Ni1542     Ni  0.91001939  0.04293802  0.69012702     1.27400
Ni1543     Ni  0.93052861  0.13058364  0.66431377     1.26100
H1544       H  0.87975982  0.16498750  0.69559243     0.39300
O1545       O  0.83004795  0.14857205  0.12266036    -0.80600
O1546       O  0.90958997  0.09164697  0.28444470    -0.65300
O1547       O  0.85848611  0.14693614  0.20105883    -1.11900
C1548       C  0.97892933  0.18299594  0.13523751     1.06300
O1549       O  0.96510310  0.12157194  0.27623475    -0.78500
O1550       O  0.94266762  0.18754595  0.24689425    -0.66100
Ni1551     Ni  0.82134248  0.12099245  0.17682191     1.34900
C1552       C  0.92029146  0.20949006  0.22926302     0.85000
O1553       O  0.83658733  0.10869744  0.27923538    -0.79100
O1554       O  0.80551058  0.09069647  0.22877524    -0.89300
C1555       C  0.94079144  0.09972609  0.29732222     0.84600
O1556       O  0.85838826  0.08678345  0.15727065    -0.67500
O1557       O  0.98747577  0.18218968  0.17254426    -0.86800
C1558       C  0.87379704  0.06306964  0.18144231     0.85400
C1559       C  0.80661088  0.09604546  0.26720833     1.07000
H1560       H  0.93749655  0.10769805  0.19018412     0.38800
O1561       O  0.92886361  0.12923350  0.20342224    -1.09500
O1562       O  0.90826819  0.20444922  0.19378009    -0.66100
Ni1563     Ni  0.90322339  0.16026303  0.16413961     1.26300
O1564       O  0.88035555  0.07053905  0.21822982    -0.66400
O1565       O  0.94766646  0.17108589  0.12680814    -0.78700
C1566       C  0.85013083  0.17576679  0.10541428     0.84800
O1567       O  0.87633217  0.18903740  0.12360020    -0.65800
Ni1568     Ni  0.97236709  0.15041866  0.22319914     1.27400
Ni1569     Ni  0.88363945  0.11784223  0.24222871     1.26100
H1570       H  0.84703367  0.16809301  0.21297806     0.39300
N1571       N  0.77350752  0.08521572  0.29674976    -0.03200
C1572       C  0.77215800  0.06373293  0.33421717    -0.00600
C1573       C  0.73659927  0.04770103  0.34502095    -0.23500
C1574       C  0.71474797  0.06025976  0.31482446    -0.23700
C1575       C  0.73732641  0.08354037  0.28615683    -0.00700
H1576       H  0.72657046  0.03112471  0.37400853     0.13100
H1577       H  0.68489762  0.05439630  0.31474709     0.13100
N1578       N  0.77749720  0.07944198  0.66143657    -0.03200
C1579       C  0.78106978  0.05016657  0.63830899    -0.00600
C1580       C  0.78165164  0.01806740  0.66480258    -0.23500
C1581       C  0.78553226  0.02907056  0.70355212    -0.23700
C1582       C  0.79274529  0.06669167  0.69730946    -0.00700
H1583       H  0.78316829  0.99003586  0.65701642     0.13100
H1584       H  0.79412734  0.01067880  0.72863773     0.13100
N1585       N  0.68925210  0.00838474  0.78272322    -0.03200
C1586       C  0.69222974  0.01073640  0.82438902    -0.00600
C1587       C  0.70122351  0.47609029  0.84215546    -0.23500
C1588       C  0.70292464  0.45166406  0.81328335    -0.23700
C1589       C  0.69530090  0.47053017  0.77550346    -0.00700
H1590       H  0.70480356  0.47009471  0.87522635     0.13100
H1591       H  0.70745962  0.42250466  0.81995877     0.13100
N1592       N  0.70097874  0.50932830  0.13885458    -0.03200
C1593       C  0.72749675  0.51906555  0.10535471    -0.00600
C1594       C  0.75340533  0.03422622  0.12317753    -0.23500
C1595       C  0.74294733  0.03811785  0.16480724    -0.23700
C1596       C  0.70409465  0.03165129  0.17123100    -0.00700
H1597       H  0.77804034  0.04730591  0.10506378     0.13100
H1598       H  0.75861440  0.05552887  0.18209758     0.13100
N1599       N  0.55385202  0.14554137  0.74900744    -0.03200
C1600       C  0.55756600  0.12578654  0.78669101    -0.00600
C1601       C  0.53535390  0.09453392  0.79167413    -0.23500
C1602       C  0.02152598  0.09649321  0.74918455    -0.23700
C1603       C  0.52559059  0.12824104  0.73255017    -0.00700
H1604       H  0.53064684  0.07474341  0.81917323     0.13100
H1605       H  0.00011774  0.07696599  0.74436964     0.13100
N1606       N  0.53976311  0.19015192  0.09247587    -0.03200
C1607       C  0.55061182  0.20911802  0.05426955    -0.00600
C1608       C  0.52055981  0.23033121  0.04149561    -0.23500
C1609       C  0.99224672  0.22309013  0.06835562    -0.23700
C1610       C  0.50255360  0.19856998  0.10204112    -0.00700
H1611       H  0.51916206  0.24582220  0.01114311     0.13100
H1612       H  0.96332107  0.23196184  0.06636943     0.13100
O1613       O  0.65192311  0.07087233  0.60600869    -0.80600
O1614       O  0.69987539  0.13470498  0.76947614    -0.65300
O1615       O  0.64683559  0.09521985  0.68744922    -1.11900
C1616       C  0.63033229  0.21425463  0.62953964     1.06300
O1617       O  0.67990951  0.19255674  0.76594406    -0.78500
O1618       O  0.61184277  0.17749508  0.74037054    -0.66100
Ni1619     Ni  0.67011822  0.05575488  0.66010157     1.34900
C1620       C  0.58819154  0.15930996  0.72342090     0.85000
O1621       O  0.67154895  0.06916150  0.76306692    -0.79100
O1622       O  0.68877770  0.03355378  0.71202650    -0.89300
C1623       C  0.69552748  0.16536010  0.78439186     0.84600
O1624       O  0.71544490  0.08399020  0.64231724    -0.67500
O1625       O  0.63251901  0.22031281  0.66724986    -0.86800
C1626       C  0.73821559  0.09146896  0.66814036     0.85400
C1627       C  0.68226244  0.03825969  0.75118519     1.07000
H1628       H  0.70074883  0.16428398  0.67584960     0.38800
O1629       O  0.67560126  0.15938707  0.69030000    -1.09500
O1630       O  0.59562117  0.14986377  0.68596022    -0.66100
Ni1631     Ni  0.64376833  0.13988915  0.65250676     1.26300
O1632       O  0.72541256  0.10228573  0.70356176    -0.66400
O1633       O  0.64146832  0.18442238  0.61610899    -0.78700
C1634       C  0.62599413  0.09263334  0.59438591     0.84800
O1635       O  0.61388619  0.11819095  0.61599954    -0.65800
Ni1636     Ni  0.65699504  0.20260951  0.71476429     1.27400
Ni1637     Ni  0.67457212  0.11471668  0.72775026     1.26100
H1638       H  0.62199967  0.08727760  0.70073475     0.39300
O1639       O  0.56927378  0.13525512  0.26915861    -0.80600
O1640       O  0.67236596  0.20041979  0.11422629    -0.65300
O1641       O  0.61133864  0.13124249  0.18844416    -1.11900
C1642       C  0.71988070  0.10613590  0.25302815     1.06300
O1643       O  0.71778902  0.15880051  0.10649092    -0.78500
O1644       O  0.69781637  0.09436362  0.14706594    -0.66100
Ni1645     Ni  0.56090168  0.14199978  0.20948105     1.34900
C1646       C  0.68527217  0.06833733  0.17403239     0.85000
O1647       O  0.59906954  0.18189265  0.11809753    -0.79100
O1648       O  0.54924526  0.14974247  0.15192229    -0.89300
C1649       C  0.69771289  0.18469212  0.09136742     0.84600
O1650       O  0.56649165  0.19382675  0.21088146    -0.67500
O1651       O  0.73630474  0.11070481  0.21529670    -0.86800
C1652       C  0.59456151  0.21602968  0.20596387     0.85400
C1653       C  0.56414716  0.17225516  0.12155403     1.07000
H1654       H  0.68563761  0.17594468  0.20087655     0.38800
O1655       O  0.67891637  0.15501174  0.18708936    -1.09500
O1656       O  0.66408949  0.07527768  0.20688185    -0.66100
Ni1657     Ni  0.64796421  0.12259319  0.22685084     1.26300
O1658       O  0.62648749  0.20844917  0.18626897    -0.66400
O1659       O  0.68611148  0.11648343  0.26331913    -0.78700
C1660       C  0.58912604  0.11101006  0.28800986     0.84800
O1661       O  0.61442193  0.09389644  0.26708544    -0.65800
Ni1662     Ni  0.72444840  0.13573336  0.16170873     1.27400
Ni1663     Ni  0.63977971  0.16816160  0.15197633     1.26100
H1664       H  0.61012453  0.10990751  0.17320297     0.39300
C1665       C  0.58648894  0.10532904  0.33484498    -0.01000
C1666       C  0.57042828  0.13187405  0.35989684    -0.09000
C1667       C  0.57275133  0.12858477  0.40347460    -0.17900
C1668       C  0.59141265  0.09871169  0.42347836     0.04500
C1669       C  0.60864165  0.07262140  0.39770751     0.18700
C1670       C  0.60502646  0.07546019  0.35437140    -0.19300
C1671       C  0.63107039  0.04483657  0.41485006    -0.20600
C1672       C  0.63717869  0.04256466  0.45704728    -0.19100
C1673       C  0.61978388  0.06714242  0.48359032     0.20100
C1674       C  0.59548623  0.09480534  0.46761541     0.02200
C1675       C  0.57686983  0.11749470  0.49647172    -0.13800
C1676       C  0.58444524  0.11457840  0.53855949    -0.11600
C1677       C  0.61174810  0.08997107  0.55289742     0.01800
C1678       C  0.62792303  0.06514864  0.52562342    -0.23700
H1679       H  0.55704544  0.15587273  0.34560896     0.09800
H1680       H  0.56095635  0.15037880  0.42068260     0.13300
H1681       H  0.61806956  0.05494687  0.33542034     0.12100
H1682       H  0.64533821  0.02587711  0.39485385     0.13200
H1683       H  0.65605292  0.02185081  0.46906102     0.12300
H1684       H  0.55679669  0.13811365  0.48725067     0.09400
H1685       H  0.57039165  0.13325893  0.55929488     0.12600
H1686       H  0.64818399  0.04514475  0.53653029     0.14500
C1687       C  0.70323416  0.16740410  0.82808234    -0.01000
C1688       C  0.68735343  0.13964126  0.85748673    -0.09000
C1689       C  0.68647420  0.14226705  0.90021636    -0.17900
C1690       C  0.70194691  0.17298026  0.91547265     0.04500
C1691       C  0.71994528  0.20066079  0.88570435     0.18700
C1692       C  0.71968390  0.19814023  0.84207639    -0.19300
C1693       C  0.73744601  0.23060112  0.89991940    -0.20600
C1694       C  0.73618535  0.23416217  0.94300288    -0.19100
C1695       C  0.71660318  0.20839015  0.97286828     0.20100
C1696       C  0.69968086  0.17713417  0.95926950     0.02200
C1697       C  0.68144907  0.15093913  0.99014514    -0.13800
C1698       C  0.67923689  0.15586046  0.03243200    -0.11600
C1699       C  0.69593957  0.18630233  0.04595799     0.01800
C1700       C  0.71485092  0.21267852  0.01633494    -0.23700
H1701       H  0.67288281  0.11675464  0.84726817     0.09800
H1702       H  0.67216118  0.12018392  0.92024567     0.13300
H1703       H  0.73157352  0.22010467  0.81926043     0.12100
H1704       H  0.75197724  0.25152947  0.87761242     0.13200
H1705       H  0.75027470  0.25743561  0.95299065     0.12300
H1706       H  0.66876828  0.12598403  0.98312792     0.09400
H1707       H  0.66540752  0.13476588  0.05516028     0.12600
H1708       H  0.72899154  0.23560280  0.02704366     0.14500
C1709       C  0.57686221  0.13814074  0.82186455    -0.01000
C1710       C  0.58657220  0.11207271  0.85393538    -0.09000
C1711       C  0.59438363  0.12254002  0.89265296    -0.17900
C1712       C  0.59392962  0.15981364  0.90020983     0.04500
C1713       C  0.58928431  0.18646311  0.86581081     0.18700
C1714       C  0.57975406  0.17550037  0.82752031    -0.19300
C1715       C  0.59131760  0.22385261  0.87092268    -0.20600
C1716       C  0.59495766  0.23528780  0.91032208    -0.19100
C1717       C  0.59525420  0.20964864  0.94570455     0.20100
C1718       C  0.59526536  0.17148817  0.94116132     0.02200
C1719       C  0.59217588  0.14678733  0.97830515    -0.13800
C1720       C  0.58385494  0.15952607  0.01792561    -0.11600
C1721       C  0.57969749  0.19713299  0.02158814     0.01800
C1722       C  0.59037538  0.22194727  0.98595873    -0.23700
H1723       H  0.08560517  0.08440747  0.84722059     0.09800
H1724       H  0.09941099  0.10157904  0.91374995     0.13300
H1725       H  0.57174881  0.19612009  0.80352489     0.12100
H1726       H  0.58853949  0.24439434  0.84467490     0.13200
H1727       H  0.59439433  0.26443462  0.91371514     0.12300
H1728       H  0.09457793  0.11799531  0.97514336     0.09400
H1729       H  0.07924123  0.14011777  0.04272254     0.12600
H1730       H  0.58781959  0.25116122  0.98878688     0.14500
C1731       C  0.68599622  0.04203207  0.84929005    -0.01000
C1732       C  0.65618673  0.53935082  0.87578555    -0.09000
C1733       C  0.65932301  0.54115195  0.91859002    -0.17900
C1734       C  0.69106704  0.04692760  0.93572263     0.04500
C1735       C  0.72242826  0.05686583  0.90498277     0.18700
C1736       C  0.71905721  0.05598332  0.86194205    -0.19300
C1737       C  0.75779514  0.06443087  0.91742243    -0.20600
C1738       C  0.76329717  0.06044087  0.95974189    -0.19100
C1739       C  0.73401128  0.04735744  0.99043976     0.20100
C1740       C  0.70173601  0.54003029  0.97588045     0.02200
C1741       C  0.67416453  0.52483070  0.00829305    -0.13800
C1742       C  0.68286960  0.51713754  0.04982177    -0.11600
C1743       C  0.71909177  0.52462707  0.06056372     0.01800
C1744       C  0.74187294  0.03960471  0.03219192    -0.23700
H1745       H  0.62959314  0.52982193  0.86696959     0.09800
H1746       H  0.63382548  0.53641205  0.94017704     0.13300
H1747       H  0.74425560  0.05932010  0.83931069     0.12100
H1748       H  0.78166178  0.07256724  0.89420272     0.13200
H1749       H  0.79112975  0.06634151  0.96837249     0.12300
H1750       H  0.64594130  0.51773992  0.00222614     0.09400
H1751       H  0.66098818  0.50551491  0.07369345     0.12600
H1752       H  0.77032167  0.04465014  0.03932186     0.14500
C1753       C  0.79691938  0.06447164  0.36801556    -0.01000
C1754       C  0.80105083  0.03044571  0.39092921    -0.09000
C1755       C  0.79971681  0.02719734  0.43451787    -0.17900
C1756       C  0.79696639  0.05848608  0.45690677     0.04500
C1757       C  0.79766632  0.09353858  0.43328508     0.18700
C1758       C  0.79780424  0.09629101  0.38899311    -0.19300
C1759       C  0.79536780  0.12529997  0.45439026    -0.20600
C1760       C  0.79242876  0.12291662  0.49833000    -0.19100
C1761       C  0.79065484  0.08866864  0.52236546     0.20100
C1762       C  0.79262480  0.05600587  0.50185688     0.02200
C1763       C  0.78945544  0.02208506  0.52720901    -0.13800
C1764       C  0.78511922  0.02053935  0.57090383    -0.11600
C1765       C  0.78366795  0.05260909  0.59141237     0.01800
C1766       C  0.78648162  0.08672383  0.56678568    -0.23700
H1767       H  0.79805444  0.00563907  0.37603444     0.09800
H1768       H  0.80027595  0.99961298  0.44956336     0.13300
H1769       H  0.79362224  0.12277812  0.37181771     0.12100
H1770       H  0.79518559  0.15214012  0.43682349     0.13200
H1771       H  0.79071377  0.14802694  0.51363372     0.12300
H1772       H  0.78998721  0.99601161  0.51442385     0.09400
H1773       H  0.78292624  0.99369237  0.58836507     0.12600
H1774       H  0.78552324  0.11179760  0.58215234     0.14500
C1775       C  0.94348901  0.07633365  0.56196063    -0.01000
C1776       C  0.97454362  0.09384637  0.53711976    -0.09000
C1777       C  0.97821688  0.09424115  0.49340362    -0.17900
C1778       C  0.95044340  0.07749486  0.47318601     0.04500
C1779       C  0.91915061  0.05968917  0.49878079     0.18700
C1780       C  0.91626873  0.05876619  0.54261157    -0.19300
C1781       C  0.89062814  0.04315282  0.48048496    -0.20600
C1782       C  0.89198272  0.04481943  0.43706845    -0.19100
C1783       C  0.92145172  0.06301394  0.41102382     0.20100
C1784       C  0.95187333  0.07863155  0.42853961     0.02200
C1785       C  0.98190140  0.09517991  0.40052862    -0.13800
C1786       C  0.97982570  0.09906039  0.35723429    -0.11600
C1787       C  0.94796294  0.08634138  0.34053812     0.01800
C1788       C  0.91987518  0.06660193  0.36748007    -0.23700
H1789       H  0.99587085  0.10780101  0.55147446     0.09800
H1790       H  0.00250541  0.10869238  0.47635395     0.13300
H1791       H  0.89190796  0.04550453  0.56158833     0.12100
H1792       H  0.86744038  0.02857800  0.49987829     0.13200
H1793       H  0.87035754  0.03140195  0.42334355     0.12300
H1794       H  0.00668232  0.10644677  0.41112506     0.09400
H1795       H  0.00226399  0.11410997  0.33705317     0.12600
H1796       H  0.89534938  0.05613987  0.35493206     0.14500
C1797       C  0.84417439  0.18903174  0.06113622    -0.01000
C1798       C  0.87013859  0.21283013  0.03577704    -0.09000
C1799       C  0.86995255  0.21727510  0.99186839    -0.17900
C1800       C  0.84435700  0.19707761  0.97186142     0.04500
C1801       C  0.81626219  0.17532243  0.99794692     0.18700
C1802       C  0.81570153  0.17245364  0.04195125    -0.19300
C1803       C  0.79068591  0.15425751  0.97996647    -0.20600
C1804       C  0.79450288  0.15186447  0.93671319    -0.19100
C1805       C  0.82399148  0.17024230  0.91045233     0.20100
C1806       C  0.84767562  0.19504164  0.92727703     0.02200
C1807       C  0.87525563  0.21492033  0.89903171    -0.13800
C1808       C  0.88246735  0.20693020  0.85738454    -0.11600
C1809       C  0.86256718  0.17884644  0.84219848     0.01800
C1810       C  0.83154736  0.16227526  0.86816282    -0.23700
H1811       H  0.89210834  0.22637153  0.04955910     0.09800
H1812       H  0.89174966  0.23485922  0.97433617     0.13300
H1813       H  0.79486477  0.15444633  0.06103206     0.12100
H1814       H  0.76863010  0.13817048  0.99967020     0.13200
H1815       H  0.77499288  0.13469047  0.92382963     0.12300
H1816       H  0.89263596  0.23587930  0.90857389     0.09400
H1817       H  0.90528582  0.22174948  0.83753985     0.12600
H1818       H  0.81491923  0.14151728  0.85649811     0.14500
C1819       C  0.84175766  0.01282584  0.88016788    -0.01000
C1820       C  0.86677849  0.03828624  0.89251462    -0.09000
C1821       C  0.87140950  0.03948475  0.93569073    -0.17900
C1822       C  0.85057190  0.01549639  0.96777702     0.04500
C1823       C  0.82646346  0.48995713  0.95064451     0.18700
C1824       C  0.82303409  0.48799884  0.90807033    -0.19300
C1825       C  0.80538852  0.46519514  0.98021838    -0.20600
C1826       C  0.80836251  0.46513129  0.02271330    -0.19100
C1827       C  0.83164699  0.49064031  0.03702908     0.20100
C1828       C  0.85222003  0.01618860  0.01237101     0.02200
C1829       C  0.87523136  0.04078449  0.02994470    -0.13800
C1830       C  0.87422616  0.04092772  0.07401882    -0.11600
C1831       C  0.85011553  0.01681818  0.10183319     0.01800
C1832       C  0.83248436  0.49034200  0.08058753    -0.23700
H1833       H  0.88207904  0.05774342  0.86905861     0.09800
H1834       H  0.89074261  0.05985721  0.94329288     0.13300
H1835       H  0.80570107  0.46598095  0.90011594     0.12100
H1836       H  0.78608458  0.44583327  0.97044031     0.13200
H1837       H  0.79168349  0.44536572  0.04465005     0.12300
H1838       H  0.89391464  0.06028244  0.01030241     0.09400
H1839       H  0.89201239  0.06029991  0.08628425     0.12600
H1840       H  0.81621186  0.46959558  0.10149773     0.14500
C1841       C  0.89601164  0.21215832  0.32837673    -0.01000
C1842       C  0.86803803  0.20200182  0.36219148    -0.09000
C1843       C  0.87778650  0.19071884  0.40270000    -0.17900
C1844       C  0.91611874  0.18938658  0.41099131     0.04500
C1845       C  0.94439589  0.19610774  0.37586208     0.18700
C1846       C  0.93420564  0.20742620  0.33532329    -0.19300
C1847       C  0.98282633  0.19521966  0.38201441    -0.20600
C1848       C  0.99370402  0.19154265  0.42247600    -0.19100
C1849       C  0.96661024  0.18822175  0.45785696     0.20100
C1850       C  0.92743982  0.18552466  0.45290056     0.02200
C1851       C  0.90141786  0.18345182  0.49006525    -0.13800
C1852       C  0.91330500  0.19093071  0.52875525    -0.11600
C1853       C  0.95147998  0.19907364  0.53167848     0.01800
C1854       C  0.97826015  0.19253140  0.49758686    -0.23700
H1855       H  0.83828317  0.20514509  0.35791715     0.09800
H1856       H  0.85474702  0.18529254  0.42741434     0.13300
H1857       H  0.95631355  0.21638182  0.31032170     0.12100
H1858       H  0.00459047  0.19996029  0.35545475     0.13200
H1859       H  0.02335738  0.19465188  0.42616636     0.12300
H1860       H  0.87133766  0.17982932  0.48934321     0.09400
H1861       H  0.89194553  0.19526766  0.55464798     0.12600
H1862       H  0.00793877  0.19833751  0.49976445     0.14500
C1863       C  0.96768790  0.42203643  0.54647851    -0.01000
C1864       C  0.98595768  0.39035092  0.53373803    -0.09000
C1865       C  0.98965815  0.38317786  0.49145096    -0.17900
C1866       C  0.97767761  0.40904398  0.46009012     0.04500
C1867       C  0.96520638  0.44360969  0.47249590     0.18700
C1868       C  0.95909936  0.44944069  0.51538680    -0.19300
C1869       C  0.95759643  0.47174209  0.44212325    -0.20600
C1870       C  0.95836050  0.46556495  0.40009378    -0.19100
C1871       C  0.96621974  0.43062049  0.38762326     0.20100
C1872       C  0.97701011  0.40195858  0.41714160     0.02200
C1873       C  0.98474098  0.36712468  0.40277020    -0.13800
C1874       C  0.98089458  0.36093985  0.36112632    -0.11600
C1875       C  0.96873780  0.38900801  0.33291761     0.01800
C1876       C  0.96199425  0.42388540  0.34615731    -0.23700
H1877       H  0.99560071  0.37009411  0.55700004     0.09800
H1878       H  0.00197770  0.35727736  0.48421359     0.13300
H1879       H  0.94629158  0.47476976  0.52460229     0.12100
H1880       H  0.95068148  0.49852494  0.45130143     0.13200
H1881       H  0.95114072  0.48781772  0.37755492     0.12300
H1882       H  0.99264816  0.34392017  0.42331590     0.09400
H1883       H  0.98597933  0.33370508  0.35138629     0.12600
H1884       H  0.95258392  0.44565534  0.32428892     0.14500
C1885       C  0.84851013  0.33957254  0.83136890    -0.01000
C1886       C  0.84141801  0.30980028  0.86211250    -0.09000
C1887       C  0.84293853  0.31420554  0.90475534    -0.17900
C1888       C  0.85334999  0.34839506  0.91749671     0.04500
C1889       C  0.86051880  0.37832203  0.88581251     0.18700
C1890       C  0.85719455  0.37380412  0.84365629    -0.19300
C1891       C  0.87301731  0.41216639  0.89585111    -0.20600
C1892       C  0.87861343  0.41712276  0.93693837    -0.19100
C1893       C  0.87075606  0.38875488  0.96917934     0.20100
C1894       C  0.85821996  0.35382380  0.96006711     0.02200
C1895       C  0.85212792  0.32575602  0.99381707    -0.13800
C1896       C  0.85892223  0.33206288  0.03456413    -0.11600
C1897       C  0.87073555  0.36668723  0.04309974     0.01800
C1898       C  0.87626284  0.39497544  0.01044235    -0.23700
H1899       H  0.83558100  0.28288563  0.85299763     0.09800
H1900       H  0.83729563  0.29008298  0.92671152     0.13300
H1901       H  0.86445109  0.39647673  0.81997966     0.12100
H1902       H  0.87932638  0.43477328  0.87155106     0.13200
H1903       H  0.88938367  0.44333446  0.94352882     0.12300
H1904       H  0.84254223  0.29861337  0.98967212     0.09400
H1905       H  0.85454487  0.30987458  0.05966216     0.12600
H1906       H  0.88592722  0.42165986  0.01702607     0.14500
C1907       C  0.84013414  0.41663369  0.34576180    -0.01000
C1908       C  0.85307685  0.44873357  0.35987588    -0.09000
C1909       C  0.86695697  0.44749780  0.39901862    -0.17900
C1910       C  0.87088832  0.41361592  0.42300350     0.04500
C1911       C  0.86819535  0.38122091  0.40260391     0.18700
C1912       C  0.85149539  0.38275611  0.36461418    -0.19300
C1913       C  0.87785170  0.34740888  0.42284260    -0.20600
C1914       C  0.88464118  0.34463460  0.46498761    -0.19100
C1915       C  0.87842126  0.37493000  0.48828689     0.20100
C1916       C  0.87295202  0.41025939  0.46737838     0.02200
C1917       C  0.86299632  0.43923616  0.49250989    -0.13800
C1918       C  0.85123638  0.43162446  0.53576539    -0.11600
C1919       C  0.85142726  0.39549300  0.55487570     0.01800
C1920       C  0.87085409  0.36885506  0.53231629    -0.23700
H1921       H  0.84804558  0.47505493  0.34302332     0.09800
H1922       H  0.87289194  0.47311431  0.41080299     0.13300
H1923       H  0.84311158  0.35759719  0.35290063     0.12100
H1924       H  0.87781373  0.32270770  0.40688450     0.13200
H1925       H  0.88974046  0.31772118  0.48061195     0.12300
H1926       H  0.85880301  0.46681146  0.47865320     0.09400
H1927       H  0.83731911  0.45295883  0.55266574     0.12600
H1928       H  0.87212509  0.34107256  0.54742874     0.14500
C1929       C  0.60854893  0.41355253  0.32576053    -0.01000
C1930       C  0.58547908  0.38966525  0.35467968    -0.09000
C1931       C  0.58807047  0.38845093  0.39799556    -0.17900
C1932       C  0.61486669  0.41040419  0.41383724     0.04500
C1933       C  0.63882697  0.43385445  0.38431060     0.18700
C1934       C  0.63453605  0.43617642  0.34112921    -0.19300
C1935       C  0.66765694  0.45414527  0.39789691    -0.20600
C1936       C  0.67331947  0.45173782  0.44017899    -0.19100
C1937       C  0.64904682  0.43039854  0.47034821     0.20100
C1938       C  0.61926001  0.40958982  0.45771185     0.02200
C1939       C  0.59500544  0.38922573  0.48959496    -0.13800
C1940       C  0.59993443  0.38974662  0.53208950    -0.11600
C1941       C  0.62948573  0.41014844  0.54441400     0.01800
C1942       C  0.65415128  0.43015415  0.51318681    -0.23700
H1943       H  0.56584756  0.37120328  0.34372747     0.09800
H1944       H  0.56982817  0.36898315  0.41812070     0.13300
H1945       H  0.65260680  0.45472775  0.31917546     0.12100
H1946       H  0.68609808  0.47204607  0.37568066     0.13200
H1947       H  0.69629170  0.46745292  0.44943835     0.12300
H1948       H  0.57176357  0.37288168  0.48272170     0.09400
H1949       H  0.58056032  0.37373990  0.55540173     0.12600
H1950       H  0.67721287  0.44592066  0.52220360     0.14500
C1951       C  0.71901018  0.34311016  0.04897200    -0.01000
C1952       C  0.69434411  0.31532730  0.04104442    -0.09000
C1953       C  0.69052445  0.30764181  0.00006940    -0.17900
C1954       C  0.71181427  0.32717410  0.96510364     0.04500
C1955       C  0.73906492  0.35323037  0.97322549     0.18700
C1956       C  0.74227489  0.36117621  0.01484660    -0.19300
C1957       C  0.76208704  0.37194927  0.93959120    -0.20600
C1958       C  0.75753534  0.36669629  0.89810728    -0.19100
C1959       C  0.72976035  0.34256243  0.88905959     0.20100
C1960       C  0.70662392  0.32222772  0.92241806     0.02200
C1961       C  0.67855129  0.29867427  0.91152788    -0.13800
C1962       C  0.67299298  0.29640167  0.86946316    -0.11600
C1963       C  0.69466431  0.31766673  0.83671771     0.01800
C1964       C  0.72396510  0.33979319  0.84680206    -0.23700
H1965       H  0.67641758  0.30030386  0.06660589     0.09800
H1966       H  0.67027789  0.28651554  0.99688451     0.13300
H1967       H  0.76202376  0.38218845  0.02048563     0.12100
H1968       H  0.78369555  0.39095657  0.94529087     0.13200
H1969       H  0.77532646  0.38228821  0.87287068     0.12300
H1970       H  0.65993335  0.28213300  0.93476760     0.09400
H1971       H  0.65060264  0.27885917  0.86252139     0.12600
H1972       H  0.74110278  0.35642863  0.82186249     0.14500
C1973       C  0.46717258  0.32650924  0.82461933    -0.01000
C1974       C  0.94931215  0.30456688  0.85074616    -0.09000
C1975       C  0.94075288  0.31111531  0.89273706    -0.17900
C1976       C  0.45159107  0.34261671  0.90859451     0.04500
C1977       C  0.46464580  0.37067437  0.87629127     0.18700
C1978       C  0.47138352  0.36260719  0.83420957    -0.19300
C1979       C  0.47584665  0.40484000  0.88685807    -0.20600
C1980       C  0.48040373  0.40957615  0.92846151    -0.19100
C1981       C  0.47388700  0.38016569  0.95988548     0.20100
C1982       C  0.45631069  0.34741639  0.95120804     0.02200
C1983       C  0.95036968  0.31743064  0.98181532    -0.13800
C1984       C  0.96745423  0.31687496  0.01898489    -0.11600
C1985       C  0.49057394  0.34915954  0.02564843     0.01800
C1986       C  0.48998847  0.38105841  0.99770429    -0.23700
H1987       H  0.94418726  0.27741968  0.84189985     0.09800
H1988       H  0.92799025  0.28883887  0.91400357     0.13300
H1989       H  0.48543862  0.38275937  0.81048569     0.12100
H1990       H  0.48455617  0.42681599  0.86250158     0.13200
H1991       H  0.49260221  0.43509781  0.93530268     0.12300
H1992       H  0.93505405  0.29301075  0.97741398     0.09400
H1993       H  0.96604593  0.29217367  0.04040161     0.12600
H1994       H  0.50767681  0.40423637  0.00186976     0.14500
C1995       C  0.62356277  0.23618078  0.52805503    -0.01000
C1996       C  0.62589317  0.20558342  0.50549775    -0.09000
C1997       C  0.63811528  0.20926364  0.46227802    -0.17900
C1998       C  0.64665464  0.24437948  0.44037988     0.04500
C1999       C  0.64767193  0.27475978  0.46451975     0.18700
C2000       C  0.63781373  0.27000877  0.50822706    -0.19300
C2001       C  0.65414541  0.31033210  0.44453555    -0.20600
C2002       C  0.65484295  0.31699368  0.40105648    -0.19100
C2003       C  0.65026375  0.28807676  0.37672067     0.20100
C2004       C  0.64950063  0.25113342  0.39553850     0.02200
C2005       C  0.64770647  0.22284851  0.36897394    -0.13800
C2006       C  0.64029590  0.23100376  0.32729536    -0.11600
C2007       C  0.63462900  0.26735164  0.31119604     0.01800
C2008       C  0.64251805  0.29589278  0.33476677    -0.23700
H2009       H  0.61570964  0.17941346  0.52073958     0.09800
H2010       H  0.63721211  0.18477137  0.44637524     0.13300
H2011       H  0.63595256  0.29382859  0.52592378     0.12100
H2012       H  0.65560957  0.33348502  0.46284706     0.13200
H2013       H  0.65698553  0.34506613  0.38663888     0.12300
H2014       H  0.64945169  0.19420442  0.38023798     0.09400
H2015       H  0.63451596  0.20862424  0.30919041     0.12600
H2016       H  0.63824189  0.32404726  0.32220059     0.14500
N2017       N  0.62144419  0.76996284  0.23949890    -0.03200
C2018       C  0.61304332  0.77055512  0.28184740    -0.00600
C2019       C  0.57671723  0.75797086  0.29550962    -0.23500
C2020       C  0.56384939  0.74407236  0.26199827    -0.23700
C2021       C  0.59362939  0.74761442  0.22969084    -0.00700
H2022       H  0.56404102  0.75325434  0.32788862     0.13100
H2023       H  0.53923479  0.72623729  0.26435228     0.13100
N2024       N  0.61224576  0.74331705  0.60397927    -0.03200
C2025       C  0.60111705  0.74034072  0.56550164    -0.00600
C2026       C  0.56883868  0.76154194  0.56135424    -0.23500
C2027       C  0.56294084  0.78077838  0.59607205    -0.23700
C2028       C  0.59042845  0.76931941  0.62142771    -0.00700
H2029       H  0.55614643  0.76841133  0.53243393     0.13100
H2030       H  0.54437463  0.80410501  0.59936978     0.13100
N2031       N  0.50055327  0.83261979  0.75378104    -0.03200
C2032       C  0.49227265  0.81252063  0.79175803    -0.00600
C2033       C  0.51326265  0.78091183  0.79449524    -0.23500
C2034       C  0.53851717  0.78355888  0.75910368    -0.23700
C2035       C  0.53362861  0.81795323  0.73740797    -0.00700
H2036       H  0.51348651  0.76056750  0.82139064     0.13100
H2037       H  0.56330910  0.76634071  0.75582439     0.13100
N2038       N  0.52487915  0.84126014  0.09315042    -0.03200
C2039       C  0.52037271  0.83881325  0.05214091    -0.00600
C2040       C  0.55488091  0.83324663  0.02917327    -0.23500
C2041       C  0.58181715  0.83385008  0.05647389    -0.23700
C2042       C  0.56285643  0.83999335  0.09521128    -0.00700
H2043       H  0.56010870  0.83150379  0.99554192     0.13100
H2044       H  0.61217779  0.83316486  0.04798583     0.13100
O2045       O  0.65287119  0.80390776  0.78713065    -0.80600
O2046       O  0.60899492  0.89457942  0.61963412    -0.65300
O2047       O  0.65777976  0.83387703  0.70098350    -1.11900
C2048       C  0.68719939  0.95041295  0.74368244     1.06300
O2049       O  0.66049740  0.92919254  0.60282371    -0.78500
O2050       O  0.72106864  0.92625811  0.64830175    -0.66100
Ni2051     Ni  0.62964685  0.79644831  0.73646974     1.34900
C2052       C  0.73597898  0.89695612  0.66348232     0.85000
O2053       O  0.62079307  0.82312074  0.63211158    -0.79100
O2054       O  0.60427850  0.78295152  0.68882566    -0.89300
C2055       C  0.63114311  0.91378744  0.59242017     0.84600
O2056       O  0.59474733  0.83344091  0.75064885    -0.67500
O2057       O  0.68027888  0.96536346  0.70780378    -0.86800
C2058       C  0.56939033  0.84002240  0.72671455     0.85400
C2059       C  0.60564817  0.79327292  0.64934076     1.07000
H2060       H  0.62149354  0.91204278  0.70516072     0.38800
O2061       O  0.64416337  0.90333412  0.68971037    -1.09500
O2062       O  0.71929457  0.87559977  0.69312609    -0.66100
Ni2063     Ni  0.67219968  0.87469023  0.72817605     1.26300
O2064       O  0.57881233  0.85650077  0.69014648    -0.66400
O2065       O  0.68630044  0.91591612  0.75355070    -0.78700
C2066       C  0.68174977  0.82176418  0.79471117     0.84800
O2067       O  0.69827298  0.84545697  0.76753044    -0.65800
Ni2068     Ni  0.66993620  0.94508212  0.65691115     1.27400
Ni2069     Ni  0.63108802  0.86352082  0.66072911     1.26100
H2070       H  0.67955357  0.82284211  0.68635596     0.39300
O2071       O  0.72896254  0.88643638  0.10076734    -0.80600
O2072       O  0.62792058  0.93205668  0.25756895    -0.65300
O2073       O  0.69558412  0.88027303  0.18578556    -1.11900
C2074       C  0.58286842  0.85135211  0.12959802     1.06300
O2075       O  0.58916925  0.88413474  0.27056798    -0.78500
O2076       O  0.59199204  0.82576170  0.22504639    -0.66100
Ni2077     Ni  0.74062083  0.90047218  0.15568625     1.34900
C2078       C  0.62182944  0.80677023  0.21828146     0.85000
O2079       O  0.70246972  0.91998544  0.25269522    -0.79100
O2080       O  0.75583190  0.91276935  0.20929909    -0.89300
C2081       C  0.60637697  0.91074442  0.28330553     0.84600
O2082       O  0.72265145  0.94962296  0.14197953    -0.67500
O2083       O  0.56443441  0.86600031  0.16013392    -0.86800
C2084       C  0.69559215  0.96945983  0.15689529     0.85400
C2085       C  0.73852823  0.91862006  0.24536463     1.07000
H2086       H  0.61994619  0.91565479  0.16834117     0.38800
O2087       O  0.62560138  0.89466835  0.18731413    -1.09500
O2088       O  0.65119853  0.81947774  0.19492038    -0.66100
Ni2089     Ni  0.65782436  0.86358590  0.15549355     1.26300
O2090       O  0.67054274  0.95640590  0.18642240    -0.66400
O2091       O  0.61870251  0.84717133  0.12575744    -0.78700
C2092       C  0.71401293  0.85619494  0.09324057     0.84800
O2093       O  0.69320813  0.83724514  0.12209573    -0.65800
Ni2094     Ni  0.57827065  0.87592910  0.21419199     1.27400
Ni2095     Ni  0.66321652  0.90872408  0.22032479     1.26100
H2096       H  0.70358524  0.85971586  0.20393730     0.39300
N2097       N  0.79607106  0.91353612  0.28825829    -0.03200
C2098       C  0.80028214  0.91937228  0.32859641    -0.00600
C2099       C  0.76694234  0.93210464  0.34827606    -0.23500
C2100       C  0.74145354  0.93435107  0.31913932    -0.23700
C2101       C  0.75970005  0.92326804  0.28223505    -0.00700
H2102       H  0.76181038  0.93918744  0.38036548     0.13100
H2103       H  0.71239136  0.94279506  0.32431845     0.13100
N2104       N  0.80365592  0.89918281  0.62688120    -0.03200
C2105       C  0.81809181  0.88139721  0.59325472    -0.00600
C2106       C  0.79413501  0.85328125  0.58681313    -0.23500
C2107       C  0.76378186  0.85358746  0.61659548    -0.23700
C2108       C  0.76968373  0.88199836  0.64022831    -0.00700
H2109       H  0.79685346  0.83629854  0.56092443     0.13100
H2110       H  0.73812516  0.83732855  0.61802781     0.13100
O2111       O  0.92481625  0.94380599  0.60712015    -0.80600
O2112       O  0.83738529  0.85385227  0.76511347    -0.65300
O2113       O  0.90954663  0.91149590  0.69040562    -1.11900
C2114       C  0.93538723  0.79526517  0.63602290     1.06300
O2115       O  0.87898628  0.80990812  0.77740210    -0.78500
O2116       O  0.94660826  0.80607443  0.73189711    -0.66100
Ni2117     Ni  0.89699552  0.95630319  0.65972154     1.34900
C2118       C  0.96855462  0.83411015  0.72747162     0.85000
O2119       O  0.85660495  0.92448089  0.75735561    -0.79100
O2120       O  0.86952279  0.97369088  0.71038215    -0.89300
C2121       C  0.85287978  0.83131111  0.79058728     0.84600
O2122       O  0.85261744  0.93725816  0.64006089    -0.67500
O2123       O  0.91319251  0.78027127  0.66705896    -0.86800
C2124       C  0.82917282  0.91172224  0.65466613     0.85400
C2125       C  0.85732200  0.95889065  0.74735393     1.07000
H2126       H  0.86855850  0.84101005  0.67569022     0.38800
O2127       O  0.88732885  0.84476622  0.69447719    -1.09500
O2128       O  0.96395048  0.86210466  0.70182174    -0.66100
Ni2129     Ni  0.92781668  0.87089449  0.66109911     1.26300
O2130       O  0.83066106  0.89353053  0.69064033    -0.66400
O2131       O  0.94536590  0.82908095  0.63277272    -0.78700
C2132       C  0.95308805  0.92304849  0.59801908     0.84800
O2133       O  0.96494501  0.89994503  0.62566413    -0.65800
Ni2134     Ni  0.89578765  0.79708640  0.72112408     1.27400
Ni2135     Ni  0.87126098  0.88422249  0.72649081     1.26100
H2136       H  0.92840161  0.91812390  0.70788444     0.39300
O2137       O  0.98074297  0.86479154  0.27385060    -0.80600
O2138       O  0.89573505  0.85018667  0.11084688    -0.65300
O2139       O  0.94812099  0.88300313  0.19831134    -1.11900
C2140       C  0.82576282  0.90414955  0.25724592     1.06300
O2141       O  0.86404118  0.90194362  0.10519957    -0.78500
O2142       O  0.88403661  0.94698962  0.16187061    -0.66100
Ni2143     Ni  0.98634291  0.84945903  0.21743153     1.34900
C2144       C  0.89011845  0.96043092  0.19539299     0.85000
O2145       O  0.96747606  0.86305182  0.11721520    -0.79100
O2146       O  0.99941193  0.83075090  0.16302030    -0.89300
C2147       C  0.87563640  0.87236961  0.09050248     0.84600
O2148       O  0.94929352  0.81190946  0.23506941    -0.67500
O2149       O  0.82361079  0.91667506  0.21902998    -0.86800
C2150       C  0.92542527  0.79958760  0.21317958     0.85400
C2151       C  0.99613520  0.84494417  0.12569679     1.07000
H2152       H  0.86358395  0.85035075  0.19511310     0.38800
O2153       O  0.87787057  0.87294904  0.18823766    -1.09500
O2154       O  0.89856111  0.93908902  0.22667822    -0.66100
Ni2155     Ni  0.90181941  0.88528552  0.23558019     1.26300
O2156       O  0.92101555  0.81429230  0.17618165    -0.66400
O2157       O  0.85422212  0.88620560  0.26901349    -0.78700
C2158       C  0.95687455  0.88304595  0.29598407     0.84800
O2159       O  0.92604212  0.89496321  0.28341800    -0.65800
Ni2160     Ni  0.84652824  0.90893163  0.16342502     1.27400
Ni2161     Ni  0.92258495  0.86621910  0.15362365     1.26100
H2162       H  0.95890997  0.90717772  0.18992186     0.39300
N2163       N  0.91076611  0.73816611  0.25258277    -0.03200
C2164       C  0.89047437  0.73170366  0.29125518    -0.00600
C2165       C  0.86344339  0.75854376  0.29635391    -0.23500
C2166       C  0.86843821  0.78283456  0.26064829    -0.23700
C2167       C  0.89869516  0.77070003  0.23447781    -0.00700
H2168       H  0.84555909  0.76284145  0.32504875     0.13100
H2169       H  0.85585554  0.80979408  0.25792071     0.13100
N2170       N  0.95038183  0.73736726  0.59676862    -0.03200
C2171       C  0.96010125  0.73389217  0.55486599    -0.00600
C2172       C  0.96538669  0.76806564  0.53241320    -0.23500
C2173       C  0.95788650  0.79336865  0.56031753    -0.23700
C2174       C  0.94880943  0.77455337  0.59954641    -0.00700
H2175       H  0.97051521  0.77401603  0.49849715     0.13100
H2176       H  0.95570907  0.82245433  0.55214147     0.10700
N2177       N  0.85819327  0.50546448  0.79762669    -0.03200
C2178       C  0.83219475  0.51084670  0.83146913    -0.00600
C2179       C  0.79762992  0.99605111  0.83076988    -0.23500
C2180       C  0.80334416  0.97486552  0.79823190    -0.23700
C2181       C  0.84007259  0.98127607  0.78057699    -0.00700
H2182       H  0.77249939  0.99498507  0.85320345     0.13100
H2183       H  0.78321366  0.95599038  0.78890353     0.13100
N2184       N  0.88101857  0.52433822  0.16539313    -0.03200
C2185       C  0.85123652  0.51632707  0.14453249    -0.00600
C2186       C  0.81950865  0.99956946  0.17766646    -0.23500
C2187       C  0.83578715  0.99341226  0.21468642    -0.23700
C2188       C  0.87436232  0.99810550  0.20236574    -0.00700
H2189       H  0.79329837  0.98717022  0.17192082     0.13100
H2190       H  0.82307177  0.97705266  0.24245279     0.13100
O2191       O  0.91362971  0.67605893  0.78224167    -0.80600
O2192       O  0.95929894  0.60388021  0.62010563    -0.65300
O2193       O  0.90513503  0.65536303  0.70422363    -1.11900
C2194       C  0.88286915  0.53375200  0.77455396     1.06300
O2195       O  0.91663010  0.55894579  0.62802802    -0.78500
O2196       O  0.85898670  0.55135972  0.68936591    -0.66100
Ni2197     Ni  0.92948700  0.69467510  0.72499810     1.34900
C2198       C  0.83524906  0.57626270  0.69888924     0.85000
O2199       O  0.94136149  0.67504950  0.62330526    -0.79100
O2200       O  0.94568951  0.71704702  0.66869869    -0.89300
C2201       C  0.94204242  0.57877656  0.60541550     0.84600
O2202       O  0.97754672  0.67186171  0.73177949    -0.67500
O2203       O  0.90733215  0.52420621  0.74559500    -0.86800
C2204       C  0.99575739  0.64798059  0.71186286     0.85400
C2205       C  0.94545102  0.70827369  0.63119055     1.07000
H2206       H  0.94683747  0.58458265  0.71612939     0.38800
O2207       O  0.92416837  0.58924345  0.70267706    -1.09500
O2208       O  0.84487414  0.60533244  0.71458587    -0.66100
Ni2209     Ni  0.89069456  0.61242706  0.74239435     1.26300
O2210       O  0.98370033  0.63492309  0.68063452    -0.66400
O2211       O  0.87545361  0.56761822  0.77870546    -0.78700
C2212       C  0.88139650  0.66392388  0.79964644     0.84800
O2213       O  0.86264145  0.64073993  0.78268236    -0.65800
Ni2214     Ni  0.91220613  0.54322608  0.68721539     1.27400
Ni2215     Ni  0.93385136  0.63101302  0.66197378     1.26100
H2216       H  0.88271310  0.66520429  0.69277070     0.39300
O2217       O  0.83465050  0.64841052  0.12324618    -0.80600
O2218       O  0.91558799  0.58702446  0.28198975    -0.65300
O2219       O  0.86399895  0.64466467  0.20096512    -1.11900
C2220       C  0.98495323  0.68228236  0.13638063     1.06300
O2221       O  0.96870937  0.62037065  0.27742568    -0.78500
O2222       O  0.94858799  0.68682865  0.24665092    -0.66100
Ni2223     Ni  0.82658673  0.61940700  0.17617211     1.34900
C2224       C  0.92547580  0.70838541  0.22956763     0.85000
O2225       O  0.84226182  0.60426604  0.27794196    -0.79100
O2226       O  0.81170113  0.58730513  0.22673234    -0.89300
C2227       C  0.94543885  0.59653872  0.29662231     0.84600
O2228       O  0.86346483  0.58607285  0.15455793    -0.67500
O2229       O  0.99429882  0.67933397  0.17343930    -0.86800
C2230       C  0.87894511  0.56176194  0.17783458     0.85400
C2231       C  0.81229372  0.59227039  0.26525200     1.07000
H2232       H  0.94362716  0.60658734  0.18914136     0.38800
O2233       O  0.93457252  0.62765145  0.20305881    -1.09500
O2234       O  0.91275041  0.70298773  0.19463184    -0.66100
Ni2235     Ni  0.90877051  0.65912871  0.16434572     1.26300
O2236       O  0.88627335  0.56837594  0.21470886    -0.66400
O2237       O  0.95329827  0.67147973  0.12761885    -0.78700
C2238       C  0.85532377  0.67512884  0.10604895     0.84800
O2239       O  0.88176353  0.68802041  0.12416659    -0.65800
Ni2240     Ni  0.97763489  0.64855137  0.22414920     1.27400
Ni2241     Ni  0.88932868  0.61458535  0.24111062     1.26100
H2242       H  0.85251388  0.66538304  0.21379384     0.39300
N2243       N  0.77854045  0.58201731  0.29390735    -0.03200
C2244       C  0.77601873  0.55840004  0.32989740    -0.00600
C2245       C  0.73989664  0.54319588  0.33856985    -0.23500
C2246       C  0.71901060  0.55834434  0.30861409    -0.23700
C2247       C  0.74269943  0.58226117  0.28205746    -0.00700
H2248       H  0.72870612  0.52579817  0.36647518     0.13100
H2249       H  0.68910796  0.55363652  0.30730026     0.13100
N2250       N  0.77881226  0.57906390  0.65804852    -0.03200
C2251       C  0.78207689  0.54916640  0.63578070    -0.00600
C2252       C  0.78318616  0.51765780  0.66304985    -0.23500
C2253       C  0.78761326  0.52972359  0.70112776    -0.23700
C2254       C  0.79471794  0.56727220  0.69382622    -0.00700
H2255       H  0.78453140  0.48937316  0.65615752     0.13100
H2256       H  0.79619887  0.51207604  0.72661182     0.13100
N2257       N  0.68983090  0.50719213  0.77994884    -0.03200
C2258       C  0.69345541  0.50960276  0.82155438    -0.00600
C2259       C  0.70124281  0.97748010  0.84470394    -0.23500
C2260       C  0.70407572  0.95327652  0.81550621    -0.23700
C2261       C  0.69572597  0.97203716  0.77796333    -0.00700
H2262       H  0.70474590  0.97146307  0.87778711     0.13100
H2263       H  0.70941726  0.92423064  0.82187217     0.13100
N2264       N  0.69577016  0.00884616  0.14214108    -0.03200
C2265       C  0.72226466  0.01913476  0.10883767    -0.00600
C2266       C  0.75879341  0.53416758  0.11931581    -0.23500
C2267       C  0.74868857  0.53839259  0.16088265    -0.23700
C2268       C  0.70982443  0.53245158  0.16747759    -0.00700
H2269       H  0.78332428  0.54715093  0.10095903     0.13100
H2270       H  0.76464919  0.55586937  0.17780666     0.13100
N2271       N  0.55711132  0.64472281  0.74897165    -0.03200
C2272       C  0.56129407  0.62462466  0.78629180    -0.00600
C2273       C  0.53907577  0.59337077  0.79116029    -0.23500
C2274       C  0.01814389  0.59650097  0.75572786    -0.23700
C2275       C  0.52870124  0.62776353  0.73264297    -0.00700
H2276       H  0.53446389  0.57349022  0.81858837     0.13100
H2277       H  0.99489452  0.57824533  0.75325089     0.13100
N2278       N  0.54602324  0.69214677  0.09013142    -0.03200
C2279       C  0.55619445  0.71122545  0.05194358    -0.00600
C2280       C  0.52528146  0.73105623  0.03901187    -0.23500
C2281       C  0.99766987  0.72568133  0.07223230    -0.23700
C2282       C  0.50844324  0.69904834  0.09971215    -0.00700
H2283       H  0.52327641  0.74613631  0.00854741     0.13100
H2284       H  0.96876807  0.73495550  0.07164605     0.13100
O2285       O  0.65299931  0.57265749  0.60346560    -0.80600
O2286       O  0.70176781  0.63382277  0.76780318    -0.65300
O2287       O  0.64818324  0.59607987  0.68507356    -1.11900
C2288       C  0.63193359  0.71640561  0.62933477     1.06300
O2289       O  0.68321509  0.69220512  0.76435155    -0.78500
O2290       O  0.61466461  0.67722138  0.74012469    -0.66100
Ni2291     Ni  0.67016139  0.55609992  0.65753885     1.34900
C2292       C  0.59082980  0.65940132  0.72304489     0.85000
O2293       O  0.67331280  0.56851825  0.76047842    -0.79100
O2294       O  0.68804412  0.53243301  0.70929422    -0.89300
C2295       C  0.69835425  0.66459763  0.78265121     0.84600
O2296       O  0.71645207  0.58269259  0.63994825    -0.67500
O2297       O  0.63340206  0.72167197  0.66746359    -0.86800
C2298       C  0.73938827  0.59068681  0.66535007     0.85400
C2299       C  0.68291111  0.53732087  0.74847541     1.07000
H2300       H  0.70258257  0.66479861  0.67448077     0.38800
O2301       O  0.67742988  0.65991299  0.68891779    -1.09500
O2302       O  0.59756389  0.65120758  0.68494186    -0.66100
Ni2303     Ni  0.64545862  0.64141673  0.65079055     1.26300
O2304       O  0.72690783  0.60199132  0.70067974    -0.66400
O2305       O  0.64341639  0.68679499  0.61540384    -0.78700
C2306       C  0.62816425  0.59538543  0.59124135     0.84800
O2307       O  0.61571823  0.62060811  0.61329810    -0.65800
Ni2308     Ni  0.65913291  0.70300220  0.71404719     1.27400
Ni2309     Ni  0.67630458  0.61458260  0.72566596     1.26100
H2310       H  0.62327672  0.58848457  0.69845885     0.39300
O2311       O  0.57629959  0.63691708  0.26408071    -0.80600
O2312       O  0.67961434  0.70305618  0.11146054    -0.65300
O2313       O  0.61882114  0.63278642  0.18410372    -1.11900
C2314       C  0.72667452  0.60665508  0.24921503     1.06300
O2315       O  0.72500126  0.66120441  0.10323019    -0.78500
O2316       O  0.70513433  0.59561303  0.14299346    -0.66100
Ni2317     Ni  0.56804984  0.64252848  0.20453244     1.34900
C2318       C  0.69189263  0.56967441  0.16989304     0.85000
O2319       O  0.60558298  0.68475805  0.11552893    -0.79100
O2320       O  0.55696858  0.64949703  0.14695728    -0.89300
C2321       C  0.70499052  0.68737808  0.08838385     0.84600
O2322       O  0.57216680  0.69447372  0.20491967    -0.67500
O2323       O  0.74329988  0.61119175  0.21151241    -0.86800
C2324       C  0.60038824  0.71593055  0.20401529     0.85400
C2325       C  0.57099906  0.67388233  0.11819148     1.07000
H2326       H  0.69316064  0.67731129  0.19730914     0.38800
O2327       O  0.68625409  0.65654782  0.18334268    -1.09500
O2328       O  0.67100240  0.57692366  0.20278226    -0.66100
Ni2329     Ni  0.65521585  0.62421186  0.22276927     1.26300
O2330       O  0.63302288  0.70914939  0.18517298    -0.66400
O2331       O  0.69329540  0.61806949  0.25940989    -0.78700
C2332       C  0.59622137  0.61299336  0.28325394     0.84800
O2333       O  0.62151696  0.59562317  0.26270716    -0.65800
Ni2334     Ni  0.73166898  0.63708533  0.15808419     1.27400
Ni2335     Ni  0.64687354  0.67033674  0.14864439     1.26100
H2336       H  0.61818752  0.61169104  0.16837511     0.39300
C2337       C  0.59369403  0.60811580  0.32993315    -0.01000
C2338       C  0.57860142  0.63561223  0.35412329    -0.09000
C2339       C  0.58088551  0.63297878  0.39760735    -0.17900
C2340       C  0.59854318  0.60276375  0.41831897     0.04500
C2341       C  0.61486721  0.57565744  0.39335551     0.18700
C2342       C  0.61133008  0.57797947  0.35006804    -0.19300
C2343       C  0.63598993  0.54714569  0.41134491    -0.20600
C2344       C  0.64176405  0.54522021  0.45362782    -0.19100
C2345       C  0.62514302  0.57087057  0.47939152     0.20100
C2346       C  0.60210881  0.59924069  0.46249873     0.02200
C2347       C  0.58370424  0.62271112  0.49061448    -0.13800
C2348       C  0.59001555  0.61960392  0.53308812    -0.11600
C2349       C  0.61579682  0.59394845  0.54862620     0.01800
C2350       C  0.63219067  0.56880572  0.52178081    -0.23700
H2351       H  0.56605219  0.65982894  0.33920070     0.09800
H2352       H  0.56996344  0.65558223  0.41406770     0.13300
H2353       H  0.62354289  0.55673636  0.33166366     0.12100
H2354       H  0.64922034  0.52701225  0.39212283     0.13200
H2355       H  0.65933617  0.52356237  0.46633966     0.12300
H2356       H  0.56434290  0.64375114  0.48063397     0.09400
H2357       H  0.57593578  0.63863185  0.55335539     0.12600
H2358       H  0.65140650  0.54811924  0.53350401     0.14500
C2359       C  0.70696489  0.66666706  0.82605710    -0.01000
C2360       C  0.69124491  0.63927770  0.85610605    -0.09000
C2361       C  0.69124849  0.64234007  0.89869589    -0.17900
C2362       C  0.70745550  0.67315099  0.91309659     0.04500
C2363       C  0.72523321  0.70040453  0.88262442     0.18700
C2364       C  0.72414549  0.69738710  0.83922724    -0.19300
C2365       C  0.74314739  0.73057422  0.89589927    -0.20600
C2366       C  0.74261986  0.73474957  0.93877690    -0.19100
C2367       C  0.72334270  0.70937366  0.96939135     0.20100
C2368       C  0.70592382  0.67795659  0.95669807     0.02200
C2369       C  0.68766381  0.65239005  0.98823394    -0.13800
C2370       C  0.68561196  0.65816610  0.03026442    -0.11600
C2371       C  0.70280123  0.68870506  0.04300132     0.01800
C2372       C  0.72204817  0.71437858  0.01268892    -0.23700
H2373       H  0.67628896  0.61637794  0.84656242     0.09800
H2374       H  0.67708017  0.62050518  0.91931485     0.13300
H2375       H  0.73587796  0.71905660  0.81591728     0.12100
H2376       H  0.75733700  0.75126469  0.87300147     0.13200
H2377       H  0.75680190  0.75832226  0.94799875     0.12300
H2378       H  0.67473357  0.62732442  0.98192256     0.09400
H2379       H  0.67161044  0.63754470  0.05348194     0.12600
H2380       H  0.73659693  0.73738852  0.02270450     0.14500
C2381       C  0.57959795  0.63754376  0.82179120    -0.01000
C2382       C  0.58955331  0.61204654  0.85427648    -0.09000
C2383       C  0.59772688  0.62328180  0.89254544    -0.17900
C2384       C  0.59696905  0.66076569  0.89935055     0.04500
C2385       C  0.59080085  0.68679318  0.86487279     0.18700
C2386       C  0.58138740  0.67503378  0.82699375    -0.19300
C2387       C  0.59138643  0.72435245  0.86937894    -0.20600
C2388       C  0.59564903  0.73656669  0.90818590    -0.19100
C2389       C  0.59845157  0.71152797  0.94355407     0.20100
C2390       C  0.59946177  0.67323031  0.93970010     0.02200
C2391       C  0.59865550  0.64909248  0.97711395    -0.13800
C2392       C  0.59124507  0.66230369  0.01653513    -0.11600
C2393       C  0.58580618  0.69987410  0.01956841     0.01800
C2394       C  0.59498018  0.72441341  0.98344428    -0.23700
H2395       H  0.08850524  0.58470710  0.84874017     0.09800
H2396       H  0.10319145  0.60304524  0.91460465     0.13300
H2397       H  0.57277758  0.69513412  0.80279921     0.12100
H2398       H  0.58715674  0.74439701  0.84309994     0.13200
H2399       H  0.59401614  0.76576624  0.91116925     0.12300
H2400       H  0.09894886  0.62012349  0.97559540     0.09400
H2401       H  0.08466964  0.64251648  0.04294661     0.12600
H2402       H  0.59165970  0.75362795  0.98587996     0.14500
C2403       C  0.68870845  0.54113392  0.84640679    -0.01000
C2404       C  0.65313804  0.03947713  0.87819160    -0.09000
C2405       C  0.65557017  0.04150371  0.92111700    -0.17900
C2406       C  0.69513637  0.54604911  0.93258672     0.04500
C2407       C  0.72617972  0.55593257  0.90146298     0.18700
C2408       C  0.72236807  0.55447247  0.85853649    -0.19300
C2409       C  0.76146525  0.56439898  0.91354547    -0.20600
C2410       C  0.76713145  0.56117297  0.95588120    -0.19100
C2411       C  0.73836413  0.54741523  0.98685782     0.20100
C2412       C  0.69720512  0.04102834  0.97918910     0.02200
C2413       C  0.66900538  0.02698247  0.01158796    -0.13800
C2414       C  0.67739795  0.01901639  0.05321864    -0.11600
C2415       C  0.71393227  0.02506293  0.06405172     0.01800
C2416       C  0.74650627  0.54011339  0.02858895    -0.23700
H2417       H  0.62695531  0.02942189  0.86888361     0.09800
H2418       H  0.62990048  0.03620861  0.94227729     0.13300
H2419       H  0.74737871  0.55739465  0.83561665     0.12100
H2420       H  0.78500711  0.57296938  0.89009289     0.13200
H2421       H  0.79471192  0.56816789  0.96433033     0.12300
H2422       H  0.64044986  0.02118115  0.00552585     0.09400
H2423       H  0.65504963  0.00833845  0.07709191     0.12600
H2424       H  0.77473847  0.54627878  0.03554993     0.14500
C2425       C  0.79893209  0.55802647  0.36555803    -0.01000
C2426       C  0.80081580  0.52405116  0.38943467    -0.09000
C2427       C  0.79952347  0.52142337  0.43303282    -0.17900
C2428       C  0.79763814  0.55319805  0.45461905     0.04500
C2429       C  0.79992468  0.58791531  0.43012988     0.18700
C2430       C  0.80110178  0.59005533  0.38579381    -0.19300
C2431       C  0.79817060  0.62015213  0.45030350    -0.20600
C2432       C  0.79404591  0.61863438  0.49417521    -0.19100
C2433       C  0.79111612  0.58482926  0.51906401     0.20100
C2434       C  0.79269027  0.55164284  0.49954514     0.02200
C2435       C  0.78866507  0.51824386  0.52584199    -0.13800
C2436       C  0.78425950  0.51772499  0.56952155    -0.11600
C2437       C  0.78359646  0.55037076  0.58899623     0.01800
C2438       C  0.78665083  0.58392886  0.56338322    -0.23700
H2439       H  0.79662289  0.49917467  0.37512954     0.09800
H2440       H  0.79868690  0.49401700  0.44878639     0.13300
H2441       H  0.79861114  0.61651728  0.36787081     0.12100
H2442       H  0.79934177  0.64674595  0.43202661     0.13200
H2443       H  0.79267141  0.64411564  0.50874398     0.12300
H2444       H  0.78877202  0.49186126  0.51378914     0.09400
H2445       H  0.78161775  0.49124313  0.58780193     0.12600
H2446       H  0.78613167  0.60941224  0.57792308     0.14500
C2447       C  0.94872167  0.57468542  0.56020930    -0.01000
C2448       C  0.97998538  0.59142606  0.53503093    -0.09000
C2449       C  0.98356675  0.59073242  0.49141245    -0.17900
C2450       C  0.95538552  0.57391204  0.47182216     0.04500
C2451       C  0.92377179  0.55722736  0.49780195     0.18700
C2452       C  0.92137908  0.55671599  0.54144593    -0.19300
C2453       C  0.89386686  0.54237746  0.48007083    -0.20600
C2454       C  0.89404671  0.54500423  0.43673840    -0.19100
C2455       C  0.92447474  0.56123352  0.41029679     0.20100
C2456       C  0.95637107  0.57457628  0.42734330     0.02200
C2457       C  0.98752226  0.58832548  0.39908826    -0.13800
C2458       C  0.98525798  0.59237312  0.35587811    -0.11600
C2459       C  0.95206708  0.58244009  0.33965269     0.01800
C2460       C  0.92264059  0.56499142  0.36684739    -0.23700
H2461       H  0.00126944  0.60579895  0.54897877     0.09800
H2462       H  0.00759289  0.60506592  0.47372703     0.13300
H2463       H  0.89679430  0.54412177  0.56066797     0.12100
H2464       H  0.86993956  0.52933444  0.49984880     0.13200
H2465       H  0.87065536  0.53394177  0.42346816     0.12300
H2466       H  0.01355744  0.59672807  0.40956153     0.09400
H2467       H  0.00882331  0.60515340  0.33526978     0.12600
H2468       H  0.89709346  0.55657457  0.35457773     0.14500
C2469       C  0.85006551  0.68786373  0.06161848    -0.01000
C2470       C  0.87690563  0.71066564  0.03630609    -0.09000
C2471       C  0.87798483  0.71366563  0.99235270    -0.17900
C2472       C  0.85266541  0.69313290  0.97236073     0.04500
C2473       C  0.82338703  0.67282871  0.99826634     0.18700
C2474       C  0.82185562  0.67105955  0.04225566    -0.19300
C2475       C  0.79720765  0.65251239  0.98023058    -0.20600
C2476       C  0.80090945  0.65013022  0.93698977    -0.19100
C2477       C  0.83134687  0.66707884  0.91090596     0.20100
C2478       C  0.85671287  0.69009505  0.92801893     0.02200
C2479       C  0.88635919  0.70742181  0.90037666    -0.13800
C2480       C  0.89230052  0.70016664  0.85852796    -0.11600
C2481       C  0.86927982  0.67509980  0.84233353     0.01800
C2482       C  0.83772247  0.65975618  0.86831786    -0.23700
H2483       H  0.89863493  0.72440812  0.05026102     0.09800
H2484       H  0.90019756  0.73077933  0.97497615     0.13300
H2485       H  0.80032676  0.65383435  0.06133186     0.12100
H2486       H  0.77430627  0.63750762  0.99982471     0.13200
H2487       H  0.78040380  0.63419246  0.92394317     0.12300
H2488       H  0.90645346  0.72559772  0.91042698     0.09400
H2489       H  0.91644636  0.71324976  0.83918203     0.12600
H2490       H  0.81930438  0.64080847  0.85614726     0.14500
C2491       C  0.84133190  0.51306281  0.87599925    -0.01000
C2492       C  0.86542363  0.53949624  0.88809481    -0.09000
C2493       C  0.87018515  0.54110449  0.93119984    -0.17900
C2494       C  0.85058097  0.51641620  0.96353315     0.04500
C2495       C  0.82584377  0.98975137  0.95454518     0.18700
C2496       C  0.82283017  0.98792524  0.91190172    -0.19300
C2497       C  0.80351704  0.96577021  0.98383151    -0.20600
C2498       C  0.80532926  0.96619853  0.02646368    -0.19100
C2499       C  0.82908374  0.99108904  0.04109675     0.20100
C2500       C  0.85293744  0.51700532  0.00806515     0.02200
C2501       C  0.87489910  0.54268551  0.02537022    -0.13800
C2502       C  0.87501069  0.54234898  0.06941024    -0.11600
C2503       C  0.85313173  0.51660813  0.09754149     0.01800
C2504       C  0.82866419  0.99137206  0.08469331    -0.23700
H2505       H  0.87996646  0.55933902  0.86450737     0.09800
H2506       H  0.88883191  0.56217875  0.93855350     0.13300
H2507       H  0.80493833  0.96647505  0.90361676     0.12100
H2508       H  0.78392729  0.94683567  0.97372150     0.13200
H2509       H  0.78740947  0.94730666  0.04822577     0.12300
H2510       H  0.89182925  0.56347287  0.00553566     0.09400
H2511       H  0.89184678  0.56266232  0.08140454     0.12600
H2512       H  0.81093613  0.97161845  0.10542132     0.14500
C2513       C  0.90296708  0.70851935  0.32825781    -0.01000
C2514       C  0.87601991  0.69446552  0.36137426    -0.09000
C2515       C  0.88658464  0.68356726  0.40156616    -0.17900
C2516       C  0.92459287  0.68706946  0.41015671     0.04500
C2517       C  0.95236143  0.69725738  0.37536462     0.18700
C2518       C  0.94140443  0.70770845  0.33501984    -0.19300
C2519       C  0.99049558  0.70074435  0.38179533    -0.20600
C2520       C  0.00110213  0.69829150  0.42236234    -0.19100
C2521       C  0.97394179  0.69196148  0.45749874     0.20100
C2522       C  0.93550975  0.68475533  0.45212226     0.02200
C2523       C  0.90912341  0.68020875  0.48894452    -0.13800
C2524       C  0.91915714  0.68936827  0.52774515    -0.11600
C2525       C  0.95596408  0.70168447  0.53110386     0.01800
C2526       C  0.98409989  0.69787165  0.49740777    -0.23700
H2527       H  0.84618823  0.69426997  0.35690530     0.09800
H2528       H  0.86412791  0.67460907  0.42586720     0.13300
H2529       H  0.96254652  0.71915098  0.31014278     0.12100
H2530       H  0.01188455  0.70798474  0.35541664     0.13200
H2531       H  0.03020146  0.70466633  0.42631280     0.12300
H2532       H  0.87970044  0.67345630  0.48785347     0.09400
H2533       H  0.89687630  0.69171181  0.55333716     0.12600
H2534       H  0.01274631  0.70706802  0.49999086     0.14500
C2535       C  0.96805744  0.92185218  0.55300550    -0.01000
C2536       C  0.98584871  0.89013715  0.53955288    -0.09000
C2537       C  0.98861259  0.88332309  0.49709579    -0.17900
C2538       C  0.97556190  0.90921730  0.46636565     0.04500
C2539       C  0.96303657  0.94354230  0.47949358     0.18700
C2540       C  0.95868433  0.94933707  0.52240774    -0.19300
C2541       C  0.95340340  0.97148335  0.44991128    -0.20600
C2542       C  0.95235566  0.96533669  0.40811182    -0.19100
C2543       C  0.96101952  0.93080634  0.39483596     0.20100
C2544       C  0.97378670  0.90239519  0.42339642     0.02200
C2545       C  0.98272390  0.86817240  0.40796030    -0.13800
C2546       C  0.97862177  0.86244380  0.36615550    -0.11600
C2547       C  0.96478190  0.89025455  0.33875896     0.01800
C2548       C  0.95622315  0.92440463  0.35331762    -0.23700
H2549       H  0.99525725  0.86926392  0.56236595     0.09800
H2550       H  0.00046730  0.85737253  0.48935729     0.13300
H2551       H  0.94603714  0.97457592  0.53215609     0.12100
H2552       H  0.94639847  0.99815980  0.45948934     0.13200
H2553       H  0.94359606  0.98741740  0.38628761     0.12300
H2554       H  0.99225732  0.84517161  0.42767043     0.09400
H2555       H  0.98508259  0.83571254  0.35559204     0.12600
H2556       H  0.94544819  0.94602259  0.33226902     0.14500
C2557       C  0.84728999  0.83573959  0.83604388    -0.01000
C2558       C  0.83967303  0.80602202  0.86692269    -0.09000
C2559       C  0.84087829  0.81056421  0.90974294    -0.17900
C2560       C  0.85135163  0.84480242  0.92245110     0.04500
C2561       C  0.85897191  0.87450552  0.89055714     0.18700
C2562       C  0.85634130  0.86977450  0.84838587    -0.19300
C2563       C  0.87095317  0.90857637  0.90038364    -0.20600
C2564       C  0.87561173  0.91408622  0.94148489    -0.19100
C2565       C  0.86765625  0.88596364  0.97392491     0.20100
C2566       C  0.85578828  0.85068124  0.96510678     0.02200
C2567       C  0.85025179  0.82282220  0.99917707    -0.13800
C2568       C  0.85690302  0.82978999  0.03989808    -0.11600
C2569       C  0.86783097  0.86490149  0.04804841     0.01800
C2570       C  0.87271338  0.89285585  0.01506223    -0.23700
H2571       H  0.83345607  0.77917414  0.85786619     0.09800
H2572       H  0.83468219  0.78666553  0.93195956     0.13300
H2573       H  0.86406704  0.89231443  0.82469336     0.12100
H2574       H  0.87748077  0.93101311  0.87591634     0.13200
H2575       H  0.88600680  0.94049594  0.94789242     0.12300
H2576       H  0.84165258  0.79531277  0.99511913     0.09400
H2577       H  0.85326386  0.80772651  0.06520087     0.12600
H2578       H  0.88182158  0.91985212  0.02125444     0.14500
C2579       C  0.83507434  0.91567360  0.35009273    -0.01000
C2580       C  0.84880504  0.94723745  0.36457604    -0.09000
C2581       C  0.86221341  0.94535215  0.40397343    -0.17900
C2582       C  0.86487984  0.91129069  0.42799997     0.04500
C2583       C  0.86058412  0.87902929  0.40778610     0.18700
C2584       C  0.84453351  0.88134125  0.36939941    -0.19300
C2585       C  0.86838682  0.84476054  0.42828110    -0.20600
C2586       C  0.87614535  0.84173556  0.47008454    -0.19100
C2587       C  0.87271062  0.87241538  0.49304816     0.20100
C2588       C  0.86782685  0.90786886  0.47218247     0.02200
C2589       C  0.85967532  0.93719644  0.49733339    -0.13800
C2590       C  0.84933588  0.93000752  0.54090376    -0.11600
C2591       C  0.84952451  0.89393971  0.56022232     0.01800
C2592       C  0.86750385  0.86687293  0.53718682    -0.23700
H2593       H  0.84499380  0.97374411  0.34756523     0.09800
H2594       H  0.86904463  0.97067426  0.41579485     0.13300
H2595       H  0.83525608  0.85658923  0.35750459     0.12100
H2596       H  0.86661905  0.82004595  0.41263740     0.13200
H2597       H  0.88019818  0.81461894  0.48578797     0.12300
H2598       H  0.85568850  0.96482848  0.48351943     0.09400
H2599       H  0.83636898  0.95166563  0.55804614     0.12600
H2600       H  0.86879289  0.83914818  0.55247255     0.14500
C2601       C  0.60523086  0.91384421  0.32920250    -0.01000
C2602       C  0.58193594  0.89051741  0.35853032    -0.09000
C2603       C  0.58409140  0.89039396  0.40179093    -0.17900
C2604       C  0.61069166  0.91287550  0.41715200     0.04500
C2605       C  0.63501378  0.93558317  0.38719663     0.18700
C2606       C  0.63096053  0.93703297  0.34405315    -0.19300
C2607       C  0.66415885  0.95573970  0.40032054    -0.20600
C2608       C  0.66940688  0.95432840  0.44263666    -0.19100
C2609       C  0.64436003  0.93430591  0.47321189     0.20100
C2610       C  0.61462561  0.91320827  0.46097068     0.02200
C2611       C  0.59014656  0.89347874  0.49313592    -0.13800
C2612       C  0.59491634  0.89471627  0.53553737    -0.11600
C2613       C  0.62449519  0.91530131  0.54747914     0.01800
C2614       C  0.64904996  0.93514036  0.51600005    -0.23700
H2615       H  0.56244528  0.87167625  0.34797236     0.09800
H2616       H  0.56566405  0.87134816  0.42228059     0.13300
H2617       H  0.64913988  0.95518284  0.32174660     0.12100
H2618       H  0.68314389  0.97282872  0.37775812     0.13200
H2619       H  0.69273853  0.96976295  0.45155333     0.12300
H2620       H  0.56708152  0.87680544  0.48653739     0.09400
H2621       H  0.57563319  0.87882870  0.55905849     0.12600
H2622       H  0.67212206  0.95107144  0.52472941     0.14500
C2623       C  0.71642437  0.84447399  0.04981991    -0.01000
C2624       C  0.69226196  0.81626344  0.04181294    -0.09000
C2625       C  0.68941586  0.80775002  0.00090859    -0.17900
C2626       C  0.71111166  0.82694716  0.96602611     0.04500
C2627       C  0.73766736  0.85366988  0.97424215     0.18700
C2628       C  0.73998106  0.86235032  0.01581219    -0.19300
C2629       C  0.76081261  0.87239539  0.94070754    -0.20600
C2630       C  0.75670765  0.86681670  0.89920591    -0.19100
C2631       C  0.72934260  0.84229092  0.89006030     0.20100
C2632       C  0.70661361  0.82141212  0.92330326     0.02200
C2633       C  0.67945910  0.79693227  0.91220749    -0.13800
C2634       C  0.67363401  0.79510544  0.87010592    -0.11600
C2635       C  0.69421154  0.81757967  0.83766469     0.01800
C2636       C  0.72331366  0.83990096  0.84783226    -0.23700
H2637       H  0.67411608  0.80135717  0.06726801     0.09800
H2638       H  0.66946084  0.78637221  0.99768099     0.13300
H2639       H  0.75930695  0.88371479  0.02148241     0.12100
H2640       H  0.78191922  0.89192183  0.94648568     0.13200
H2641       H  0.77434800  0.88263536  0.87401912     0.12300
H2642       H  0.66166860  0.77944670  0.93531845     0.09400
H2643       H  0.65184522  0.77706343  0.86286060     0.12600
H2644       H  0.73993327  0.85716405  0.82303489     0.14500
C2645       C  0.46794423  0.82485675  0.82811993    -0.01000
C2646       C  0.94698192  0.79864308  0.85685009    -0.09000
C2647       C  0.93815191  0.80612707  0.89852313    -0.17900
C2648       C  0.45055055  0.84038939  0.91231037     0.04500
C2649       C  0.46384628  0.86865822  0.88037358     0.18700
C2650       C  0.47135143  0.86090587  0.83821177    -0.19300
C2651       C  0.47445394  0.90283368  0.89145293    -0.20600
C2652       C  0.47827365  0.90740045  0.93329194    -0.19100
C2653       C  0.47119263  0.87793444  0.96455214     0.20100
C2654       C  0.45390994  0.84525660  0.95526473     0.02200
C2655       C  0.94514584  0.81610156  0.98740594    -0.13800
C2656       C  0.96170524  0.81647620  0.02480344    -0.11600
C2657       C  0.48600363  0.84685241  0.03116261     0.01800
C2658       C  0.48636099  0.87871760  0.00298664    -0.23700
H2659       H  0.94322487  0.77096306  0.84899800     0.09800
H2660       H  0.92661245  0.78385597  0.92061319     0.13300
H2661       H  0.48519240  0.88142875  0.81479069     0.12100
H2662       H  0.48338376  0.92495332  0.86736361     0.13200
H2663       H  0.49017773  0.93291143  0.94055756     0.12300
H2664       H  0.92849848  0.79219981  0.98421869     0.09400
H2665       H  0.95855583  0.79279943  0.04775203     0.12600
H2666       H  0.50409764  0.90172243  0.00759976     0.14500
C2667       C  0.62893600  0.74089016  0.52756746    -0.01000
C2668       C  0.63426484  0.71001251  0.50570943    -0.09000
C2669       C  0.64799673  0.71365333  0.46289721    -0.17900
C2670       C  0.65507046  0.74886921  0.44065271     0.04500
C2671       C  0.65324050  0.77976183  0.46424310     0.18700
C2672       C  0.64194585  0.77520150  0.50772103    -0.19300
C2673       C  0.65781997  0.81535851  0.44366869    -0.20600
C2674       C  0.65848288  0.82119707  0.40008593    -0.19100
C2675       C  0.65622051  0.79143662  0.37634042     0.20100
C2676       C  0.65848758  0.75492152  0.39578326     0.02200
C2677       C  0.65950286  0.72596464  0.36980902    -0.13800
C2678       C  0.65088601  0.73242746  0.32840988    -0.11600
C2679       C  0.64136734  0.76773869  0.31207371     0.01800
C2680       C  0.64727427  0.79756136  0.33463022    -0.23700
H2681       H  0.62524885  0.68346820  0.52102505     0.09800
H2682       H  0.64915940  0.68884678  0.44735565     0.13300
H2683       H  0.63787347  0.79922861  0.52491887     0.12100
H2684       H  0.65718544  0.83897380  0.46155908     0.13200
H2685       H  0.65834732  0.84911056  0.38522492     0.12300
H2686       H  0.66414907  0.69784114  0.38150057     0.09400
H2687       H  0.64694416  0.70913031  0.31097283     0.12600
H2688       H  0.64024090  0.82497037  0.32178965     0.14500
loop_ 
_geom_bond_atom_site_label_1 
_geom_bond_atom_site_label_2 
_geom_bond_distance 
_geom_bond_site_symmetry_2 
_ccdc_geom_bond_type 
N1            C5   1.369       .  A
N1            C2   1.360       .  A
N1           C62   1.451       .  S
C2            C3   1.379       .  A
C2          C663   1.468       .  S
C3            C4   1.358       .  A
C3            H6   1.083       .  S
C4            C5   1.390       .  A
C4            H7   1.083       .  S
C5          C308   1.492       .  S
N8           C12   1.349       .  A
N8            C9   1.354       .  A
N8          C272   1.439       .  S
C9           C10   1.392       .  A
C9          C651   1.480       .  S
C10          C11   1.374       .  A
C10          H13   1.083       .  S
C11          C12   1.375       .  A
C11          H14   1.083       .  S
C12          C43   1.462       .  S
N15          C19   1.365       .  A
N15          C16   1.362   1_455  A
N15        C1446   1.448   1_455  S
C16          C17   1.375   1_655  A
C16         C629   1.481       .  S
C17          C18   1.360       .  A
C17          H20   1.083       .  S
C18          C19   1.395       .  A
C18          H21   1.082       .  S
C19          C42   1.497       .  S
N22          C26   1.355       .  A
N22          C23   1.355       .  A
N22        C1479   1.433   1_455  S
C23          C24   1.381       .  A
C23         C641   1.473   1_455  S
C24          C25   1.369       .  A
C24          H27   1.083   1_554  S
C25          C26   1.385       .  A
C25          H28   1.082       .  S
C26          C58   1.476       .  S
O29         Ni35   1.950       .  S
O29          C50   1.278       .  A
O30         Ni53   1.889       .  S
O30          C39   1.265       .  A
O31         Ni35   1.894       .  S
O31         Ni53   1.924       .  S
O31         Ni47   1.901       .  S
O31          H54   0.966       .  S
C32         C245   1.479       .  S
C32          O49   1.272       .  A
C32          O41   1.273       .  A
O33         Ni52   1.954       .  S
O33          C39   1.279       .  A
O34         Ni52   1.939       .  S
O34          C36   1.272       .  A
Ni35         O38   1.966       .  S
Ni35         O40   1.890       .  S
C36          C92   1.470       .  S
C36          O46   1.263       .  A
O37         Ni53   1.873       .  S
O37          C43   1.266       .  A
O38          C43   1.284       .  A
C39         C597   1.487       .  S
O40          C42   1.257       .  A
O41         Ni52   1.933       .  S
C42          O48   1.274       .  A
H44          O45   0.966       .  S
O45         Ni53   1.892       .  S
O45         Ni47   1.904       .  S
O45         Ni52   1.932       .  S
O46         Ni47   1.907       .  S
Ni47         O51   1.895       .  S
Ni47         O49   1.887       .  S
O48         Ni53   1.987       .  S
C50         C619   1.489       .  S
C50          O51   1.264       .  A
O55         Ni61   1.967       .  S
O55          C76   1.284       .  A
O56         Ni79   1.893       .  S
O56          C65   1.266       .  A
O57         Ni61   1.889       .  S
O57         Ni79   1.890       .  S
O57         Ni73   1.878       .  S
O57          H80   0.966       .  S
C58          O75   1.271       .  A
C58          O67   1.281       .  A
O59         Ni78   1.955       .  S
O59          C65   1.279       .  A
O60         Ni78   1.904       .  S
O60          C62   1.274       .  A
Ni61         O64   1.949       .  S
Ni61         O66   1.937       .  S
C62          O72   1.277       .  A
O63         Ni79   1.905       .  S
O63          C69   1.277       .  A
O64          C69   1.283       .  A
C65         C585   1.490       .  S
O66          C68   1.280       .  A
O67         Ni78   1.938       .  S
C68         N248   1.474       .  S
C68          O74   1.279       .  A
C69          C85   1.496       .  S
H70          O71   0.966       .  S
O71         Ni79   1.904       .  S
O71         Ni73   1.905       .  S
O71         Ni78   1.904       .  S
O72         Ni73   1.956       .  S
Ni73         O77   1.891       .  S
Ni73         O75   1.894       .  S
O74         Ni79   1.965       .  S
C76         C607   1.493       .  S
C76          O77   1.269       .  A
N81          C85   1.367       .  A
N81          C82   1.358       .  A
N81         C124   1.432       .  S
C82          C83   1.379       .  A
C82         C563   1.481       .  S
C83          C84   1.369       .  A
C83          H86   1.083       .  S
C84          C85   1.382       .  A
C84          H87   1.075       .  S
N88          C92   1.365       .  A
N88          C89   1.366       .  A
N88         C108   1.445       .  S
C89          C90   1.382       .  A
C89         C575   1.487       .  S
C90          C91   1.359       .  A
C90          H93   1.083       .  S
C91          C92   1.378       .  A
C91          H94   1.083       .  S
O95        Ni101   1.956       .  S
O95         C116   1.282       .  A
O96        Ni119   1.901       .  S
O96         C105   1.271       .  A
O97        Ni101   1.908       .  S
O97        Ni119   1.898       .  S
O97        Ni113   1.915       .  S
O97         H120   0.966       .  S
C98         C158   1.491       .  S
C98         O115   1.281       .  A
C98         O107   1.276       .  A
O99        Ni118   1.936       .  S
O99         C105   1.273       .  A
O100       Ni118   1.907       .  S
O100        C102   1.277       .  A
Ni101       O104   1.966       .  S
Ni101       O106   1.918       .  S
C102       N1359   1.446       .  S
C102        O112   1.272       .  A
O103       Ni119   1.898       .  S
O103        C109   1.268       .  A
O104        C109   1.283       .  A
C105        C541   1.475       .  S
O106        C108   1.271       .  A
O107       Ni118   1.932       .  S
C108        O114   1.280       .  A
C109        C165   1.493       .  S
H110        O111   0.966       .  S
O111       Ni119   1.907       .  S
O111       Ni113   1.892       .  S
O111       Ni118   1.904       .  S
O112       Ni113   1.938       .  S
Ni113       O117   1.896       .  S
Ni113       O115   1.927       .  S
O114       Ni119   1.949       .  S
C116        C519   1.490       .  S
C116        O117   1.270       .  A
O121       Ni127   1.938       .  S
O121        C142   1.274       .  A
O122       Ni145   1.899       .  S
O122        C131   1.261       .  A
O123       Ni127   1.937       .  S
O123       Ni145   1.933       .  S
O123       Ni139   1.926       .  S
O123        H146   0.966       .  S
C124        O141   1.274       .  A
C124        O133   1.277       .  A
O125       Ni144   1.947       .  S
O125        C131   1.274       .  A
O126       Ni144   1.922       .  S
O126        C128   1.267       .  A
Ni127       O130   1.948       .  S
Ni127       O132   1.908       .  S
C128        C172   1.509       .  S
C128        O138   1.269       .  A
O129       Ni145   1.875       .  S
O129        C135   1.253       .  A
O130        C135   1.275       .  A
C131        C553   1.475       .  S
O132        C134   1.271       .  A
O133       Ni144   1.929       .  S
C134        C151   1.486       .  S
C134        O140   1.279       .  A
C135       N1366   1.436       .  S
H136        O137   0.965       .  S
O137       Ni145   1.860       .  S
O137       Ni139   1.918       .  S
O137       Ni144   1.891       .  S
O138       Ni139   1.959       .  S
Ni139       O143   1.905       .  S
Ni139       O141   1.896       .  S
O140       Ni145   1.960       .  S
C142        C531   1.482       .  S
C142        O143   1.268       .  A
N147        C151   1.358       .  A
N147        C148   1.359       .  A
N147        C208   1.434       .  S
C148        C149   1.377       .  A
C148        C497   1.494       .  S
C149        C150   1.375       .  A
C149        H152   1.082       .  S
C150        C151   1.388       .  A
C150        H153   1.079       .  S
N154        C158   1.375       .  A
N154        C155   1.370       .  A
N154        C189   1.453       .  S
C155        C156   1.382       .  A
C155        C509   1.487       .  S
C156        C157   1.356       .  A
C156        H159   1.083       .  S
C157        C158   1.378       .  A
C157        H160   1.075       .  S
N161        C162   1.369       .  A
N161        C837   1.372   1_545  A
N161        C178   1.445       .  S
C162        C835   1.388   1_545  A
C162        C475   1.506       .  S
C163        C164   1.360       .  A
C163        C834   1.388       .  A
C163        H166   1.079       .  S
C164        C165   1.373       .  A
C164        H167   1.082       .  S
C165        N833   1.374       .  A
N168        C169   1.354       .  A
N168        C844   1.368   1_545  A
N168        C214   1.464       .  S
C169        C842   1.389   1_545  A
C169        C487   1.492       .  S
C170        C171   1.375       .  A
C170        C841   1.389       .  A
C170        H173   1.079       .  S
C171        C172   1.386       .  A
C171        H174   1.077       .  S
C172        N840   1.367       .  A
O175       Ni181   1.924       .  S
O175        C196   1.278       .  A
O176       Ni199   1.885       .  S
O176        C185   1.262       .  A
O177       Ni181   1.898       .  S
O177       Ni199   1.897       .  S
O177       Ni193   1.928       .  S
O177        H200   0.966       .  S
C178        O195   1.286       .  A
C178        O187   1.273       .  A
O179       Ni198   1.918       .  S
O179        C185   1.270       .  A
O180       Ni198   1.902       .  S
O180        C182   1.275       .  A
Ni181       O184   1.942       .  S
Ni181       O186   1.925       .  S
C182        C238   1.509       .  S
C182        O192   1.286       .  A
O183       Ni199   1.929       .  S
O183        C189   1.277       .  A
O184        C189   1.280       .  A
C185        C431   1.460       .  S
O186        C188   1.269       .  A
O187       Ni198   1.919       .  S
C188       C1603   1.491       .  S
C188        O194   1.271       .  A
H190        O191   0.957       .  S
O191       Ni199   1.907       .  S
O191       Ni193   1.899       .  S
O191       Ni198   1.871       .  S
O192       Ni193   1.974       .  S
Ni193       O197   1.925       .  S
Ni193       O195   1.954       .  S
O194       Ni199   1.947       .  S
C196        C465   1.490       .  S
C196        O197   1.281       .  A
O201       Ni207   1.918       .  S
O201        C222   1.270       .  A
O202       Ni225   1.890       .  S
O202        C211   1.265       .  A
O203       Ni207   1.907       .  S
O203       Ni225   1.908       .  S
O203       Ni219   1.907       .  S
O203        H226   0.966       .  S
C204       C1610   1.464       .  S
C204        O221   1.261       .  A
C204        O213   1.262       .  A
O205       Ni224   1.896       .  S
O205        C211   1.266       .  A
O206       Ni224   1.880       .  S
O206        C208   1.264       .  A
Ni207       O210   1.940       .  S
Ni207       O212   1.910       .  S
C208        O218   1.288       .  A
O209       Ni225   1.946       .  S
O209        C215   1.275       .  A
O210        C215   1.273       .  A
C211        C443   1.465       .  S
O212        C214   1.269       .  A
O213       Ni224   1.915       .  S
C214        O220   1.281       .  A
C215        N227   1.454       .  S
H216        O217   0.966       .  S
O217       Ni225   1.938       .  S
O217       Ni219   1.914       .  S
O217       Ni224   1.926       .  S
O218       Ni219   1.969       .  S
Ni219       O223   1.916       .  S
Ni219       O221   1.890       .  S
O220       Ni225   1.966       .  S
C222        C453   1.488       .  S
C222        O223   1.271       .  A
N227        C231   1.367       .  A
N227        C228   1.366       .  A
C228        C229   1.386       .  A
C228        C409   1.469       .  S
C229        C230   1.350       .  A
C229        H232   1.084       .  S
C230        C231   1.379       .  A
C230        H233   1.083       .  S
C231        C298   1.469       .  S
N234        C238   1.369       .  A
N234        C235   1.362       .  A
N234        C282   1.460       .  S
C235        C236   1.378       .  A
C235        C421   1.489       .  S
C236        C237   1.367       .  A
C236        H239   1.081   1_545  S
C237        C238   1.394       .  A
C237        H240   1.070       .  S
N241        C242   1.364       .  A
N241        C917   1.371   1_545  A
N241        C283   1.453       .  S
C242        C915   1.377   1_545  A
C242        C387   1.465       .  S
C243        C244   1.348       .  A
C243        C914   1.376       .  A
C243        H246   1.083       .  S
C244        C245   1.386       .  A
C244        H247   1.083       .  S
C245        N913   1.372       .  A
N248        C249   1.366       .  A
N248        C924   1.372       .  A
C249        C922   1.380       .  A
C249        C399   1.496       .  S
C250        C251   1.367       .  A
C250        C921   1.379       .  A
C250        H253   1.079       .  S
C251        C252   1.388       .  A
C251        H254   1.079       .  S
C252        N920   1.372       .  A
C252        C302   1.507       .  S
N255        C259   1.371       .  A
N255        C256   1.365       .  A
N255        C276   1.455       .  S
C256        C257   1.379       .  A
C256        C365   1.495       .  S
C257       C1602   1.362       .  A
C257        H260   1.081       .  S
C258       C1601   1.361       .  A
C258       C1603   1.385       .  A
C258        H261   1.077       .  S
C259       C1602   1.384       .  A
C259       C1532   1.493   1_455  S
N262        C266   1.361       .  A
N262        C263   1.362       .  A
N262        C309   1.446       .  S
C263        C264   1.391       .  A
C263        C377   1.484       .  S
C264       C1609   1.366   1_455  A
C264        H267   1.083       .  S
C265       C1608   1.365       .  A
C265       C1610   1.373       .  A
C265        H268   1.082       .  S
C266       C1609   1.371   1_455  A
C266       C1548   1.465   1_455  S
O269       Ni275   1.958       .  S
O269        C290   1.279       .  A
O270       Ni293   1.904       .  S
O270        C279   1.269       .  A
O271       Ni275   1.906       .  S
O271       Ni293   1.911       .  S
O271       Ni287   1.899       .  S
O271        H294   0.966       .  S
C272        O289   1.259       .  A
C272        O281   1.266       .  A
O273       Ni292   1.916       .  S
O273        C279   1.266       .  A
O274       Ni292   1.911       .  S
O274        C276   1.273       .  A
Ni275       O278   1.959       .  S
Ni275       O280   1.917       .  S
C276        O286   1.282       .  A
O277       Ni293   1.916       .  S
O277        C283   1.274       .  A
O278        C283   1.280       .  A
C279        C343   1.469       .  S
O280        C282   1.273       .  A
O281       Ni292   1.906       .  S
C282        O288   1.278       .  A
H284        O285   0.966       .  S
O285       Ni293   1.926       .  S
O285       Ni287   1.928       .  S
O285       Ni292   1.921       .  S
O286       Ni287   1.967       .  S
Ni287       O291   1.892       .  S
Ni287       O289   1.909       .  S
O288       Ni293   1.956       .  S
C290        C333   1.493       .  S
C290        O291   1.263       .  A
O295       Ni301   1.961       .  S
O295        C316   1.277       .  A
O296       Ni319   1.897       .  S
O296        C305   1.269       .  A
O297       Ni301   1.892       .  S
O297       Ni319   1.904       .  S
O297       Ni313   1.888       .  S
O297        H320   0.966       .  S
C298        O315   1.269       .  A
C298        O307   1.278       .  A
O299       Ni318   1.923       .  S
O299        C305   1.274       .  A
O300       Ni318   1.913       .  S
O300        C302   1.266       .  A
Ni301       O304   1.924       .  S
Ni301       O306   1.913       .  S
C302        O312   1.274       .  A
O303       Ni319   1.941       .  S
O303        C309   1.281       .  A
O304        C309   1.279       .  A
C305        C355   1.459       .  S
O306        C308   1.271       .  A
O307       Ni318   1.956       .  S
C308        O314   1.275       .  A
H310        O311   0.966       .  S
O311       Ni319   1.912       .  S
O311       Ni313   1.904       .  S
O311       Ni318   1.888       .  S
O312       Ni313   1.979       .  S
Ni313       O317   1.894       .  S
Ni313       O315   1.874       .  S
O314       Ni319   1.949       .  S
C316        C321   1.487       .  S
C316        O317   1.263       .  A
C321        C322   1.403       .  A
C321        C326   1.404       .  A
C322        C323   1.403       .  A
C322        H335   1.083       .  S
C323        C324   1.413       .  A
C323        H336   1.075       .  S
C324        C330   1.432       .  A
C324        C325   1.419       .  A
C325        C327   1.398       .  A
C325        C326   1.407       .  A
C326        H337   1.085       .  S
C327        C328   1.392       .  A
C327        H338   1.080       .  S
C328        C329   1.397       .  A
C328        H339   1.080       .  S
C329        C330   1.421       .  A
C329        C334   1.410       .  A
C330        C331   1.411       .  A
C331        C332   1.400       .  A
C331        H340   1.080       .  S
C332        C333   1.407       .  A
C332        H341   1.083       .  S
C333        C334   1.403       .  A
C334        H342   1.084       .  S
C343        C344   1.390       .  A
C343        C348   1.406       .  A
C344        C345   1.382       .  A
C344        H357   1.081       .  S
C345        C346   1.408       .  A
C345        H358   1.072       .  S
C346        C352   1.422       .  A
C346        C347   1.421       .  A
C347        C349   1.402       .  A
C347        C348   1.413       .  A
C348        H359   1.084       .  S
C349        C350   1.397       .  A
C349        H360   1.084       .  S
C350        C351   1.401       .  A
C350        H361   1.083       .  S
C351        C352   1.424       .  A
C351        C356   1.414   1_556  A
C352        C353   1.410       .  A
C353        C354   1.379   1_556  A
C353        H362   1.075       .  S
C354        C355   1.393       .  A
C354        H363   1.085       .  S
C355        C356   1.400       .  A
C356        H364   1.084       .  S
C365        C366   1.404       .  A
C365        C370   1.405       .  A
C366        C367   1.395       .  A
C366       H1723   1.081       .  S
C367        C368   1.410       .  A
C367       H1724   1.077       .  S
C368        C374   1.429       .  A
C368        C369   1.422       .  A
C369        C371   1.399       .  A
C369        C370   1.407       .  A
C370        H381   1.084       .  S
C371        C372   1.391       .  A
C371        H382   1.084       .  S
C372        C373   1.400       .  A
C372        H383   1.084       .  S
C373        C374   1.420       .  A
C373        C378   1.403       .  A
C374        C375   1.417       .  A
C375        C376   1.400   1_556  A
C375       H1728   1.078       .  S
C376        C377   1.400       .  A
C376       H1729   1.083       .  S
C377        C378   1.404   1_554  A
C378        H386   1.085       .  S
H379       C1710   1.082       .  S
H380       C1711   1.077       .  S
H384       C1719   1.078       .  S
H385       C1720   1.083       .  S
C387        C392   1.399       .  A
C387       C1060   1.401       .  A
C388        C389   1.399       .  A
C388       C1059   1.402       .  A
C388        H401   1.083       .  S
C389       C1062   1.412       .  A
C389        H402   1.078       .  S
C390        C391   1.423       .  A
C390       C1061   1.413       .  A
C390       C1068   1.431       .  A
C391        C393   1.396       .  A
C391        C392   1.404       .  A
C392        H403   1.085       .  S
C393        C394   1.388       .  A
C393        H404   1.084       .  S
C394        C395   1.399       .  A
C394        H405   1.082       .  S
C395        C400   1.402   1_556  A
C395       C1068   1.418       .  A
C396        C397   1.417   1_556  A
C396       C1062   1.431       .  A
C396       C1067   1.418       .  A
C397        C398   1.403       .  A
C397        H406   1.078       .  S
C398        C399   1.402       .  A
C398        H407   1.083       .  S
C399       C1072   1.408       .  A
C400       C1071   1.408       .  A
C400        H408   1.080       .  S
C409        C410   1.401       .  A
C409        C414   1.403       .  A
C410        C411   1.390       .  A
C410        H423   1.081       .  S
C411        C412   1.411       .  A
C411        H424   1.077   1_545  S
C412        C418   1.426       .  A
C412        C413   1.422       .  A
C413        C415   1.400       .  A
C413        C414   1.411       .  A
C414        H425   1.085       .  S
C415        C416   1.394       .  A
C415        H426   1.082       .  S
C416        C417   1.401       .  A
C416        H427   1.084       .  S
C417        C418   1.420       .  A
C417        C422   1.408       .  A
C418        C419   1.412       .  A
C419        C420   1.391       .  A
C419        H428   1.077   1_545  S
C420        C421   1.402       .  A
C420        H429   1.081   1_545  S
C421        C422   1.405       .  A
C422        H430   1.084       .  S
C431        C432   1.398       .  A
C431        C436   1.397       .  A
C432        C433   1.387       .  A
C432        H445   1.084       .  S
C433        C434   1.412       .  A
C433        H446   1.074       .  S
C434        C440   1.418       .  A
C434        C435   1.420       .  A
C435        C437   1.396       .  A
C435        C436   1.393       .  A
C436        H447   1.085       .  S
C437        C438   1.385       .  A
C437        H448   1.083       .  S
C438        C439   1.391       .  A
C438        H449   1.073       .  S
C439        C440   1.418       .  A
C439        C444   1.397       .  A
C440        C441   1.407       .  A
C441        C442   1.385       .  A
C441        H450   1.070       .  S
C442        C443   1.400       .  A
C442        H451   1.082       .  S
C443        C444   1.397       .  A
C444        H452   1.085       .  S
C453        C454   1.401       .  A
C453        C458   1.407       .  A
C454        C455   1.401   1_554  A
C454        H467   1.083       .  S
C455        C456   1.419       .  A
C455        H468   1.077       .  S
C456        C462   1.431       .  A
C456        C457   1.418   1_556  A
C457        C459   1.400   1_554  A
C457        C458   1.403       .  A
C458        H469   1.084       .  S
C459        C460   1.391       .  A
C459        H470   1.084   1_556  S
C460        C461   1.396       .  A
C460        H471   1.079       .  S
C461        C462   1.425       .  A
C461        C466   1.413       .  A
C462        C463   1.406       .  A
C463        C464   1.390       .  A
C463        H472   1.075       .  S
C464        C465   1.407       .  A
C464        H473   1.082       .  S
C465        C466   1.402       .  A
C466        H474   1.084       .  S
C475        C476   1.405       .  A
C475       C1152   1.405   1_545  A
C476        C477   1.419       .  A
C476        H489   1.082       .  S
C477        C478   1.425       .  A
C477        H490   1.079       .  S
C478        C484   1.440   1_556  A
C478       C1151   1.416   1_545  A
C479        C481   1.396       .  A
C479        C480   1.393       .  A
C479       C1150   1.417       .  A
C480       C1147   1.407       .  A
C480        H491   1.084       .  S
C481        C482   1.377   1_556  A
C481        H492   1.077       .  S
C482        C483   1.392       .  A
C482        H493   1.084       .  S
C483        C488   1.397       .  A
C483       C1156   1.426       .  A
C484        C485   1.415       .  A
C484       C1155   1.426   1_545  A
C485        C486   1.410       .  A
C485        H494   1.079       .  S
C486        C487   1.408       .  A
C486        H495   1.082       .  S
C487       C1160   1.394   1_545  A
C488       C1159   1.396       .  A
C488        H496   1.084       .  S
C497        C498   1.402       .  A
C497        C502   1.404       .  A
C498        C499   1.402       .  A
C498        H511   1.083       .  S
C499        C500   1.414       .  A
C499        H512   1.075       .  S
C500        C506   1.437       .  A
C500        C501   1.423       .  A
C501        C503   1.399       .  A
C501        C502   1.410       .  A
C502        H513   1.084       .  S
C503        C504   1.390       .  A
C503        H514   1.084       .  S
C504        C505   1.400       .  A
C504        H515   1.083       .  S
C505        C506   1.421       .  A
C505        C510   1.407       .  A
C506        C507   1.419       .  A
C507        C508   1.406       .  A
C507        H516   1.078       .  S
C508        C509   1.402       .  A
C508        H517   1.083       .  S
C509        C510   1.405       .  A
C510        H518   1.086       .  S
C519        C520   1.403       .  A
C519        C524   1.402       .  A
C520        C521   1.402       .  A
C520        H533   1.082       .  S
C521        C522   1.413       .  A
C521        H534   1.078       .  S
C522        C528   1.435       .  A
C522        C523   1.421       .  A
C523        C525   1.395       .  A
C523        C524   1.408       .  A
C524        H535   1.085       .  S
C525        C526   1.389       .  A
C525        H536   1.077       .  S
C526        C527   1.398       .  A
C526        H537   1.084       .  S
C527        C528   1.423       .  A
C527        C532   1.406       .  A
C528        C529   1.416       .  A
C529        C530   1.402       .  A
C529        H538   1.078       .  S
C530        C531   1.401       .  A
C530        H539   1.083       .  S
C531        C532   1.400       .  A
C532        H540   1.085       .  S
C541        C542   1.401       .  A
C541        C546   1.396       .  A
C542        C543   1.405       .  A
C542        H555   1.083       .  S
C543        C544   1.420       .  A
C543        H556   1.078       .  S
C544        C550   1.433       .  A
C544        C545   1.421       .  A
C545        C547   1.397       .  A
C545        C546   1.397       .  A
C546        H557   1.078       .  S
C547        C548   1.384       .  A
C547        H558   1.084       .  S
C548        C549   1.395       .  A
C548        H559   1.083       .  S
C549        C550   1.425       .  A
C549        C554   1.402   1_556  A
C550        C551   1.415       .  A
C551        C552   1.401   1_556  A
C551        H560   1.078       .  S
C552        C553   1.402       .  A
C552        H561   1.083       .  S
C553        C554   1.395       .  A
C554        H562   1.085       .  S
C563        C564   1.397       .  A
C563        C568   1.403       .  A
C564        C565   1.395       .  A
C564        H577   1.081       .  S
C565        C566   1.409       .  A
C565        H578   1.074       .  S
C566        C572   1.428       .  A
C566        C567   1.421       .  A
C567        C569   1.399       .  A
C567        C568   1.410       .  A
C568        H579   1.084       .  S
C569        C570   1.394       .  A
C569        H580   1.084       .  S
C570        C571   1.402       .  A
C570        H581   1.084       .  S
C571        C572   1.419       .  A
C571        C576   1.404       .  A
C572        C573   1.417       .  A
C573        C574   1.402       .  A
C573        H582   1.077       .  S
C574        C575   1.401       .  A
C574        H583   1.083       .  S
C575        C576   1.406       .  A
C576        H584   1.085       .  S
C585        C586   1.402       .  A
C585        C590   1.404       .  A
C586        C587   1.401       .  A
C586        H599   1.082       .  S
C587        C588   1.417       .  A
C587        H600   1.077       .  S
C588        C594   1.433       .  A
C588        C589   1.420       .  A
C589        C591   1.400       .  A
C589        C590   1.406       .  A
C590        H601   1.084       .  S
C591        C592   1.388       .  A
C591        H602   1.083       .  S
C592        C593   1.398       .  A
C592        H603   1.084       .  S
C593        C594   1.424       .  A
C593        C598   1.408       .  A
C594        C595   1.412       .  A
C595        C596   1.397       .  A
C595        H604   1.075       .  S
C596        C597   1.404       .  A
C596        H605   1.083       .  S
C597        C598   1.402       .  A
C598        H606   1.084       .  S
C607        C608   1.405       .  A
C607        C612   1.407       .  A
C608        C609   1.393   1_554  A
C608        H621   1.083       .  S
C609        C610   1.410       .  A
C609        H622   1.078       .  S
C610        C616   1.432       .  A
C610        C611   1.423       .  A
C611        C613   1.400       .  A
C611        C612   1.415   1_556  A
C612        H623   1.084       .  S
C613        C614   1.392       .  A
C613        H624   1.078       .  S
C614        C615   1.399       .  A
C614        H625   1.084       .  S
C615        C616   1.420       .  A
C615        C620   1.408       .  A
C616        C617   1.415       .  A
C617        C618   1.397       .  A
C617        H626   1.077       .  S
C618        C619   1.400       .  A
C618        H627   1.081       .  S
C619        C620   1.407       .  A
C620        H628   1.084       .  S
C629        C634   1.400       .  A
C629       C1974   1.400       .  A
C630        C631   1.391       .  A
C630       C1973   1.399       .  A
C630        H643   1.082       .  S
C631       C1976   1.410       .  A
C631        H644   1.076       .  S
C632        C638   1.426       .  A
C632        C633   1.423       .  A
C632       C1975   1.410       .  A
C633        C635   1.399       .  A
C633        C634   1.408       .  A
C634        H645   1.085       .  S
C635        C636   1.392       .  A
C635        H646   1.084       .  S
C636        C637   1.400       .  A
C636        H647   1.084       .  S
C637        C638   1.420       .  A
C637        C642   1.403       .  A
C638       C1983   1.416       .  A
C639        C640   1.395   1_556  A
C639       C1982   1.416       .  A
C639        H648   1.078       .  S
C640       C1985   1.393       .  A
C640        H649   1.080       .  S
C641        C642   1.401   1_554  A
C641       C1984   1.393       .  A
C642        H650   1.085   1_656  S
C651        C652   1.393       .  A
C651        C656   1.403       .  A
C652        C653   1.401       .  A
C652        H665   1.076       .  S
C653        C654   1.419       .  A
C653        H666   1.078       .  S
C654        C660   1.429       .  A
C654        C655   1.421       .  A
C655        C657   1.401       .  A
C655        C656   1.401       .  A
C656        H667   1.086       .  S
C657        C658   1.389       .  A
C657        H668   1.084       .  S
C658        C659   1.398       .  A
C658        H669   1.084       .  S
C659        C660   1.425       .  A
C659        C664   1.404       .  A
C660        C661   1.413       .  A
C661        C662   1.395       .  A
C661        H670   1.078       .  S
C662        C663   1.401       .  A
C662        H671   1.084       .  S
C663        C664   1.396       .  A
C664        H672   1.085       .  S
N673        C677   1.368       .  A
N673        C674   1.360       .  A
N673        C734   1.452       .  S
C674        C675   1.379       .  A
C674       C1335   1.469       .  S
C675        C676   1.357       .  A
C675        H678   1.083       .  S
C676        C677   1.391       .  A
C676        H679   1.083       .  S
C677        C980   1.492       .  S
N680        C684   1.351       .  A
N680        C681   1.354       .  A
N680        C944   1.442       .  S
C681        C682   1.392       .  A
C681       C1323   1.478       .  S
C682        C683   1.374       .  A
C682        H685   1.083       .  S
C683        C684   1.377       .  A
C683        H686   1.083       .  S
C684        C715   1.463       .  S
N687        C691   1.362   1_655  A
N687        C688   1.361       .  A
N687       C2118   1.443       .  S
C688        C689   1.374   1_655  A
C688       C1301   1.480       .  S
C689        C690   1.361       .  A
C689        H692   1.083       .  S
C690        C691   1.397       .  A
C690        H693   1.082       .  S
C691        C714   1.498       .  S
N694        C698   1.354       .  A
N694        C695   1.356       .  A
N694       C2151   1.434   1_455  S
C695        C696   1.381       .  A
C695       C1313   1.475   1_455  S
C696        C697   1.370       .  A
C696        H699   1.083   1_554  S
C697        C698   1.384       .  A
C697        H700   1.081       .  S
C698        C730   1.475       .  S
O701       Ni707   1.950       .  S
O701        C722   1.276       .  A
O702       Ni725   1.893       .  S
O702        C711   1.267       .  A
O703       Ni707   1.902       .  S
O703       Ni725   1.933       .  S
O703       Ni719   1.905       .  S
O703        H726   0.966       .  S
C704        C917   1.478       .  S
C704        O721   1.271       .  A
C704        O713   1.274       .  A
O705       Ni724   1.954       .  S
O705        C711   1.279       .  A
O706       Ni724   1.940       .  S
O706        C708   1.272       .  A
Ni707       O710   1.968       .  S
Ni707       O712   1.885       .  S
C708        C764   1.473       .  S
C708        O718   1.260       .  A
O709       Ni725   1.873       .  S
O709        C715   1.265       .  A
O710        C715   1.282       .  A
C711       C1269   1.489       .  S
O712        C714   1.253       .  A
O713       Ni724   1.937       .  S
C714        O720   1.277       .  A
H716        O717   0.966       .  S
O717       Ni725   1.891       .  S
O717       Ni719   1.901       .  S
O717       Ni724   1.939       .  S
O718       Ni719   1.900       .  S
Ni719       O723   1.884       .  S
Ni719       O721   1.881       .  S
O720       Ni725   1.999       .  S
C722       C1291   1.486       .  S
C722        O723   1.259       .  A
O727       Ni733   1.974       .  S
O727        C748   1.286       .  A
O728       Ni751   1.896       .  S
O728        C737   1.267       .  A
O729       Ni733   1.884       .  S
O729       Ni751   1.889       .  S
O729       Ni745   1.876       .  S
O729        H752   0.966       .  S
C730        O747   1.271       .  A
C730        O739   1.280       .  A
O731       Ni750   1.950       .  S
O731        C737   1.278       .  A
O732       Ni750   1.907       .  S
O732        C734   1.274       .  A
Ni733       O736   1.955       .  S
Ni733       O738   1.937       .  S
C734        O744   1.275       .  A
O735       Ni751   1.899       .  S
O735        C741   1.275       .  A
O736        C741   1.285       .  A
C737       C1257   1.489       .  S
O738        C740   1.281       .  A
O739       Ni750   1.930       .  S
C740        N920   1.474   1_565  S
C740        O746   1.281       .  A
C741        C757   1.498       .  S
H742        O743   0.966       .  S
O743       Ni751   1.901       .  S
O743       Ni745   1.904       .  S
O743       Ni750   1.898       .  S
O744       Ni745   1.954       .  S
Ni745       O749   1.884       .  S
Ni745       O747   1.898       .  S
O746       Ni751   1.968       .  S
C748       C1279   1.493       .  S
C748        O749   1.266       .  A
N753        C757   1.368       .  A
N753        C754   1.359       .  A
N753        C796   1.432       .  S
C754        C755   1.379       .  A
C754       C1235   1.481       .  S
C755        C756   1.367       .  A
C755        H758   1.083       .  S
C756        C757   1.382       .  A
C756        H759   1.075       .  S
N760        C764   1.365       .  A
N760        C761   1.366       .  A
N760        C780   1.446       .  S
C761        C762   1.384       .  A
C761       C1247   1.490       .  S
C762        C763   1.358       .  A
C762        H765   1.082       .  S
C763        C764   1.378       .  A
C763        H766   1.083       .  S
O767       Ni773   1.947       .  S
O767        C788   1.280       .  A
O768       Ni791   1.898       .  S
O768        C777   1.269       .  A
O769       Ni773   1.907       .  S
O769       Ni791   1.897       .  S
O769       Ni785   1.914       .  S
O769        H792   0.966       .  S
C770        C830   1.493       .  S
C770        O787   1.281       .  A
C770        O779   1.277       .  A
O771       Ni790   1.942       .  S
O771        C777   1.275       .  A
O772       Ni790   1.905       .  S
O772        C774   1.277       .  A
Ni773       O776   1.956       .  S
Ni773       O778   1.920       .  S
C774       N2031   1.445       .  S
C774        O784   1.273       .  A
O775       Ni791   1.904       .  S
O775        C781   1.270       .  A
O776        C781   1.281       .  A
C777       C1213   1.474       .  S
O778        C780   1.271       .  A
O779       Ni790   1.938       .  S
C780        O786   1.279       .  A
C781        C837   1.489       .  S
H782        O783   0.966       .  S
O783       Ni791   1.909       .  S
O783       Ni785   1.891       .  S
O783       Ni790   1.905       .  S
O784       Ni785   1.941       .  S
Ni785       O789   1.897       .  S
Ni785       O787   1.926       .  S
O786       Ni791   1.945       .  S
C788       C1191   1.487       .  S
C788        O789   1.271       .  A
O793       Ni799   1.936       .  S
O793        C814   1.274       .  A
O794       Ni817   1.898       .  S
O794        C803   1.261       .  A
O795       Ni799   1.935       .  S
O795       Ni817   1.930       .  S
O795       Ni811   1.929       .  S
O795        H818   0.966       .  S
C796        O813   1.275       .  A
C796        O805   1.275       .  A
O797       Ni816   1.942       .  S
O797        C803   1.273       .  A
O798       Ni816   1.921       .  S
O798        C800   1.267       .  A
Ni799       O802   1.947       .  S
Ni799       O804   1.907       .  S
C800        C844   1.513       .  S
C800        O810   1.270       .  A
O801       Ni817   1.879       .  S
O801        C807   1.253       .  A
O802        C807   1.274       .  A
C803       C1225   1.471       .  S
O804        C806   1.271       .  A
O805       Ni816   1.922       .  S
C806        C823   1.485       .  S
C806        O812   1.280       .  A
C807       N2038   1.436       .  S
H808        O809   0.966       .  S
O809       Ni817   1.862       .  S
O809       Ni811   1.914       .  S
O809       Ni816   1.892       .  S
O810       Ni811   1.965       .  S
Ni811       O815   1.902       .  S
Ni811       O813   1.901       .  S
O812       Ni817   1.964       .  S
C814       C1203   1.479       .  S
C814        O815   1.267       .  A
N819        C823   1.360       .  A
N819        C820   1.362       .  A
N819        C880   1.439       .  S
C820        C821   1.379       .  A
C820       C1169   1.500       .  S
C821        C822   1.375       .  A
C821        H824   1.082       .  S
C822        C823   1.386       .  A
C822        H825   1.082       .  S
N826        C830   1.374       .  A
N826        C827   1.374       .  A
N826        C861   1.452       .  S
C827        C828   1.382       .  A
C827       C1181   1.492       .  S
C828        C829   1.357       .  A
C828        H831   1.083       .  S
C829        C830   1.378       .  A
C829        H832   1.076       .  S
N833        C834   1.371       .  A
N833        C850   1.445       .  S
C834       C1147   1.509       .  S
C835        C836   1.360       .  A
C835        H838   1.079       .  S
C836        C837   1.371       .  A
C836        H839   1.082       .  S
N840        C841   1.357       .  A
N840        C886   1.463       .  S
C841       C1159   1.496       .  S
C842        C843   1.376       .  A
C842        H845   1.079       .  S
C843        C844   1.387       .  A
C843        H846   1.077       .  S
O847       Ni853   1.927       .  S
O847        C868   1.278       .  A
O848       Ni871   1.884       .  S
O848        C857   1.261       .  A
O849       Ni853   1.898       .  S
O849       Ni871   1.899       .  S
O849       Ni865   1.928       .  S
O849        H872   0.966       .  S
C850        O867   1.286       .  A
C850        O859   1.272       .  A
O851       Ni870   1.920       .  S
O851        C857   1.271       .  A
O852       Ni870   1.904       .  S
O852        C854   1.276       .  A
Ni853       O856   1.946       .  S
Ni853       O858   1.923       .  S
C854        C910   1.509       .  S
C854        O864   1.284       .  A
O855       Ni871   1.923       .  S
O855        C861   1.274       .  A
O856        C861   1.281       .  A
C857       C1103   1.462       .  S
O858        C860   1.269       .  A
O859       Ni870   1.916       .  S
C860       C2275   1.487       .  S
C860        O866   1.270       .  A
H862        O863   0.957       .  S
O863       Ni871   1.903       .  S
O863       Ni865   1.901       .  S
O863       Ni870   1.870       .  S
O864       Ni865   1.968       .  S
Ni865       O869   1.923       .  S
Ni865       O867   1.957       .  S
O866       Ni871   1.943       .  S
C868       C1137   1.489       .  S
C868        O869   1.280       .  A
O873       Ni879   1.908       .  S
O873        C894   1.268       .  A
O874       Ni897   1.896       .  S
O874        C883   1.267       .  A
O875       Ni879   1.907       .  S
O875       Ni897   1.908       .  S
O875       Ni891   1.906       .  S
O875        H898   0.966       .  S
C876       C2282   1.465       .  S
C876        O893   1.262       .  A
C876        O885   1.263       .  A
O877       Ni896   1.897       .  S
O877        C883   1.266       .  A
O878       Ni896   1.885       .  S
O878        C880   1.265       .  A
Ni879       O882   1.932       .  S
Ni879       O884   1.908       .  S
C880        O890   1.288       .  A
O881       Ni897   1.947       .  S
O881        C887   1.275       .  A
O882        C887   1.271       .  A
C883       C1115   1.467       .  S
O884        C886   1.268       .  A
O885       Ni896   1.915       .  S
C886        O892   1.284       .  A
C887        N899   1.451       .  S
H888        O889   0.966       .  S
O889       Ni897   1.935       .  S
O889       Ni891   1.918       .  S
O889       Ni896   1.929       .  S
O890       Ni891   1.969       .  S
Ni891       O895   1.921       .  S
Ni891       O893   1.891       .  S
O892       Ni897   1.972       .  S
C894       C1125   1.487       .  S
C894        O895   1.274       .  A
N899        C903   1.367       .  A
N899        C900   1.366       .  A
C900        C901   1.385       .  A
C900       C1081   1.474       .  S
C901        C902   1.352       .  A
C901        H904   1.083       .  S
C902        C903   1.378       .  A
C902        H905   1.081       .  S
C903        C970   1.476       .  S
N906        C910   1.370       .  A
N906        C907   1.362       .  A
N906        C954   1.463       .  S
C907        C908   1.381       .  A
C907       C1093   1.492       .  S
C908        C909   1.369       .  A
C908        H911   1.081       .  S
C909        C910   1.392       .  A
C909        H912   1.068       .  S
N913        C914   1.366       .  A
N913        C955   1.455       .  S
C914       C1059   1.465       .  S
C915        C916   1.350       .  A
C915        H918   1.083       .  S
C916        C917   1.386       .  A
C916        H919   1.083       .  S
N920        C921   1.367       .  A
C921       C1071   1.495       .  S
C922        C923   1.366       .  A
C922        H925   1.078       .  S
C923        C924   1.386       .  A
C923        H926   1.081       .  S
C924        C974   1.506       .  S
N927        C931   1.365       .  A
N927        C928   1.364       .  A
N927        C948   1.448       .  S
C928        C929   1.378       .  A
C928       C1037   1.491       .  S
C929       C2274   1.363       .  A
C929        H932   1.082       .  S
C930       C2273   1.363       .  A
C930       C2275   1.386       .  A
C930        H933   1.077       .  S
C931       C2274   1.385       .  A
C931       C2204   1.484   1_455  S
N934        C938   1.360       .  A
N934        C935   1.360       .  A
N934        C981   1.445       .  S
C935        C936   1.392       .  A
C935       C1049   1.482       .  S
C936       C2281   1.365   1_455  A
C936        H939   1.083       .  S
C937       C2280   1.365       .  A
C937       C2282   1.373       .  A
C937        H940   1.082       .  S
C938       C2281   1.370   1_455  A
C938       C2220   1.462   1_455  S
O941       Ni947   1.951       .  S
O941        C962   1.279       .  A
O942       Ni965   1.898       .  S
O942        C951   1.267       .  A
O943       Ni947   1.902       .  S
O943       Ni965   1.902       .  S
O943       Ni959   1.899       .  S
O943        H966   0.966       .  S
C944        O961   1.261       .  A
C944        O953   1.264       .  A
O945       Ni964   1.919       .  S
O945        C951   1.266       .  A
O946       Ni964   1.905       .  S
O946        C948   1.272       .  A
Ni947       O950   1.960       .  S
Ni947       O952   1.918       .  S
C948        O958   1.283       .  A
O949       Ni965   1.921       .  S
O949        C955   1.275       .  A
O950        C955   1.281       .  A
C951       C1015   1.470       .  S
O952        C954   1.272       .  A
O953       Ni964   1.906       .  S
C954        O960   1.277       .  A
H956        O957   0.966       .  S
O957       Ni965   1.935       .  S
O957       Ni959   1.934       .  S
O957       Ni964   1.923       .  S
O958       Ni959   1.964       .  S
Ni959       O963   1.900       .  S
Ni959       O961   1.919       .  S
O960       Ni965   1.957       .  S
C962       C1005   1.491       .  S
C962        O963   1.267       .  A
O967       Ni973   1.955       .  S
O967        C988   1.276       .  A
O968       Ni991   1.899       .  S
O968        C977   1.271       .  A
O969       Ni973   1.894       .  S
O969       Ni991   1.902       .  S
O969       Ni985   1.893       .  S
O969        H992   0.966       .  S
C970        O987   1.272       .  A
C970        O979   1.281       .  A
O971       Ni990   1.928       .  S
O971        C977   1.275       .  A
O972       Ni990   1.915       .  S
O972        C974   1.268       .  A
Ni973       O976   1.921       .  S
Ni973       O978   1.910       .  S
C974        O984   1.272       .  A
O975       Ni991   1.944       .  S
O975        C981   1.282       .  A
O976        C981   1.277       .  A
C977       C1027   1.461       .  S
O978        C980   1.271       .  A
O979       Ni990   1.963       .  S
C980        O986   1.277       .  A
H982        O983   0.966       .  S
O983       Ni991   1.916       .  S
O983       Ni985   1.900       .  S
O983       Ni990   1.890       .  S
O984       Ni985   1.972       .  S
Ni985       O989   1.892       .  S
Ni985       O987   1.882       .  S
O986       Ni991   1.953       .  S
C988        C993   1.486       .  S
C988        O989   1.264       .  A
C993        C994   1.404       .  A
C993        C998   1.401       .  A
C994        C995   1.404       .  A
C994       H1007   1.083       .  S
C995        C996   1.414       .  A
C995       H1008   1.074       .  S
C996       C1002   1.433       .  A
C996        C997   1.419       .  A
C997        C999   1.396       .  A
C997        C998   1.403       .  A
C998       H1009   1.084       .  S
C999       C1000   1.389       .  A
C999       H1010   1.078       .  S
C1000      C1001   1.396       .  A
C1000      H1011   1.082       .  S
C1001      C1002   1.421       .  A
C1001      C1006   1.406       .  A
C1002      C1003   1.413       .  A
C1003      C1004   1.402       .  A
C1003      H1012   1.079       .  S
C1004      C1005   1.405       .  A
C1004      H1013   1.083       .  S
C1005      C1006   1.402       .  A
C1006      H1014   1.084       .  S
C1015      C1016   1.391       .  A
C1015      C1020   1.405       .  A
C1016      C1017   1.382       .  A
C1016      H1029   1.081       .  S
C1017      C1018   1.409       .  A
C1017      H1030   1.073       .  S
C1018      C1024   1.422       .  A
C1018      C1019   1.421       .  A
C1019      C1021   1.402       .  A
C1019      C1020   1.413       .  A
C1020      H1031   1.084       .  S
C1021      C1022   1.398       .  A
C1021      H1032   1.084       .  S
C1022      C1023   1.402       .  A
C1022      H1033   1.084       .  S
C1023      C1024   1.424       .  A
C1023      C1028   1.414   1_556  A
C1024      C1025   1.410       .  A
C1025      C1026   1.380   1_556  A
C1025      H1034   1.075       .  S
C1026      C1027   1.394       .  A
C1026      H1035   1.085       .  S
C1027      C1028   1.401       .  A
C1028      H1036   1.084       .  S
C1037      C1038   1.403       .  A
C1037      C1042   1.402       .  A
C1038      C1039   1.394       .  A
C1038      H2395   1.082       .  S
C1039      C1040   1.411       .  A
C1039      H2396   1.077       .  S
C1040      C1046   1.428       .  A
C1040      C1041   1.422       .  A
C1041      C1043   1.398       .  A
C1041      C1042   1.405       .  A
C1042      H1053   1.084       .  S
C1043      C1044   1.389       .  A
C1043      H1054   1.084       .  S
C1044      C1045   1.398       .  A
C1044      H1055   1.084       .  S
C1045      C1046   1.420       .  A
C1045      C1050   1.401       .  A
C1046      C1047   1.416       .  A
C1047      C1048   1.398   1_556  A
C1047      H2400   1.078       .  S
C1048      C1049   1.401       .  A
C1048      H2401   1.082       .  S
C1049      C1050   1.402   1_554  A
C1050      H1058   1.085       .  S
H1051      C2382   1.081       .  S
H1052      C2383   1.077       .  S
H1056      C2391   1.078       .  S
H1057      C2392   1.082       .  S
C1059      C1064   1.400       .  A
C1060      C1061   1.399       .  A
C1060      H1073   1.083       .  S
C1061      H1074   1.078       .  S
C1062      C1063   1.423       .  A
C1063      C1065   1.395       .  A
C1063      C1064   1.405       .  A
C1064      H1075   1.085       .  S
C1065      C1066   1.388       .  A
C1065      H1076   1.084       .  S
C1066      C1067   1.399       .  A
C1066      H1077   1.082       .  S
C1067      C1072   1.401   1_556  A
C1068      C1069   1.416   1_556  A
C1069      C1070   1.402       .  A
C1069      H1078   1.078       .  S
C1070      C1071   1.401       .  A
C1070      H1079   1.083       .  S
C1072      H1080   1.079       .  S
C1081      C1082   1.400       .  A
C1081      C1086   1.405       .  A
C1082      C1083   1.389       .  A
C1082      H1095   1.081       .  S
C1083      C1084   1.410       .  A
C1083      H1096   1.077       .  S
C1084      C1090   1.427       .  A
C1084      C1085   1.422       .  A
C1085      C1087   1.401       .  A
C1085      C1086   1.414       .  A
C1086      H1097   1.085       .  S
C1087      C1088   1.397       .  A
C1087      H1098   1.083       .  S
C1088      C1089   1.403       .  A
C1088      H1099   1.084       .  S
C1089      C1090   1.420       .  A
C1089      C1094   1.412       .  A
C1090      C1091   1.412       .  A
C1091      C1092   1.390       .  A
C1091      H1100   1.077       .  S
C1092      C1093   1.401       .  A
C1092      H1101   1.081       .  S
C1093      C1094   1.407       .  A
C1094      H1102   1.084       .  S
C1103      C1104   1.399       .  A
C1103      C1108   1.396       .  A
C1104      C1105   1.389       .  A
C1104      H1117   1.084       .  S
C1105      C1106   1.412       .  A
C1105      H1118   1.075       .  S
C1106      C1112   1.420       .  A
C1106      C1107   1.421       .  A
C1107      C1109   1.394       .  A
C1107      C1108   1.393       .  A
C1108      H1119   1.085       .  S
C1109      C1110   1.384       .  A
C1109      H1120   1.082       .  S
C1110      C1111   1.391       .  A
C1110      H1121   1.072       .  S
C1111      C1112   1.419       .  A
C1111      C1116   1.396       .  A
C1112      C1113   1.408       .  A
C1113      C1114   1.388       .  A
C1113      H1122   1.073       .  S
C1114      C1115   1.402       .  A
C1114      H1123   1.082       .  S
C1115      C1116   1.395       .  A
C1116      H1124   1.085       .  S
C1125      C1126   1.400       .  A
C1125      C1130   1.410       .  A
C1126      C1127   1.400   1_554  A
C1126      H1139   1.083       .  S
C1127      C1128   1.418       .  A
C1127      H1140   1.077       .  S
C1128      C1134   1.429       .  A
C1128      C1129   1.417   1_556  A
C1129      C1131   1.401   1_554  A
C1129      C1130   1.402       .  A
C1130      H1141   1.084       .  S
C1131      C1132   1.391       .  A
C1131      H1142   1.084   1_556  S
C1132      C1133   1.396       .  A
C1132      H1143   1.079       .  S
C1133      C1134   1.424       .  A
C1133      C1138   1.413       .  A
C1134      C1135   1.406       .  A
C1135      C1136   1.390       .  A
C1135      H1144   1.074       .  S
C1136      C1137   1.405       .  A
C1136      H1145   1.082       .  S
C1137      C1138   1.403       .  A
C1138      H1146   1.084       .  S
C1147      C1148   1.406       .  A
C1148      C1149   1.420       .  A
C1148      H1161   1.082       .  S
C1149      C1150   1.425       .  A
C1149      H1162   1.079       .  S
C1150      C1156   1.442   1_556  A
C1151      C1153   1.396       .  A
C1151      C1152   1.391       .  A
C1152      H1163   1.084       .  S
C1153      C1154   1.376   1_556  A
C1153      H1164   1.077       .  S
C1154      C1155   1.391       .  A
C1154      H1165   1.084       .  S
C1155      C1160   1.396       .  A
C1156      C1157   1.416       .  A
C1157      C1158   1.412       .  A
C1157      H1166   1.079       .  S
C1158      C1159   1.408       .  A
C1158      H1167   1.082       .  S
C1160      H1168   1.083       .  S
C1169      C1170   1.405       .  A
C1169      C1174   1.405       .  A
C1170      C1171   1.404       .  A
C1170      H1183   1.083       .  S
C1171      C1172   1.413       .  A
C1171      H1184   1.075       .  S
C1172      C1178   1.439       .  A
C1172      C1173   1.423       .  A
C1173      C1175   1.399       .  A
C1173      C1174   1.412       .  A
C1174      H1185   1.084       .  S
C1175      C1176   1.391       .  A
C1175      H1186   1.082       .  S
C1176      C1177   1.400       .  A
C1176      H1187   1.083       .  S
C1177      C1178   1.421       .  A
C1177      C1182   1.409       .  A
C1178      C1179   1.419       .  A
C1179      C1180   1.408       .  A
C1179      H1188   1.078       .  S
C1180      C1181   1.402       .  A
C1180      H1189   1.083       .  S
C1181      C1182   1.408       .  A
C1182      H1190   1.086       .  S
C1191      C1192   1.401       .  A
C1191      C1196   1.402       .  A
C1192      C1193   1.401       .  A
C1192      H1205   1.082       .  S
C1193      C1194   1.413       .  A
C1193      H1206   1.078       .  S
C1194      C1200   1.433       .  A
C1194      C1195   1.420       .  A
C1195      C1197   1.394       .  A
C1195      C1196   1.406       .  A
C1196      H1207   1.085       .  S
C1197      C1198   1.388       .  A
C1197      H1208   1.073       .  S
C1198      C1199   1.397       .  A
C1198      H1209   1.084       .  S
C1199      C1200   1.423       .  A
C1199      C1204   1.405       .  A
C1200      C1201   1.415       .  A
C1201      C1202   1.400       .  A
C1201      H1210   1.078       .  S
C1202      C1203   1.400       .  A
C1202      H1211   1.083       .  S
C1203      C1204   1.400       .  A
C1204      H1212   1.085       .  S
C1213      C1214   1.400       .  A
C1213      C1218   1.395       .  A
C1214      C1215   1.405       .  A
C1214      H1227   1.083       .  S
C1215      C1216   1.420       .  A
C1215      H1228   1.078       .  S
C1216      C1222   1.432       .  A
C1216      C1217   1.421       .  A
C1217      C1219   1.397       .  A
C1217      C1218   1.395       .  A
C1218      H1229   1.078       .  S
C1219      C1220   1.383       .  A
C1219      H1230   1.084       .  S
C1220      C1221   1.395       .  A
C1220      H1231   1.083       .  S
C1221      C1222   1.425       .  A
C1221      C1226   1.400   1_556  A
C1222      C1223   1.415   1_556  A
C1223      C1224   1.401       .  A
C1223      H1232   1.078   1_554  S
C1224      C1225   1.401       .  A
C1224      H1233   1.083       .  S
C1225      C1226   1.394       .  A
C1226      H1234   1.085       .  S
C1235      C1236   1.398       .  A
C1235      C1240   1.402       .  A
C1236      C1237   1.396       .  A
C1236      H1249   1.080       .  S
C1237      C1238   1.408       .  A
C1237      H1250   1.077       .  S
C1238      C1244   1.427       .  A
C1238      C1239   1.421       .  A
C1239      C1241   1.399       .  A
C1239      C1240   1.410       .  A
C1240      H1251   1.084       .  S
C1241      C1242   1.393       .  A
C1241      H1252   1.084       .  S
C1242      C1243   1.402       .  A
C1242      H1253   1.084       .  S
C1243      C1244   1.419       .  A
C1243      C1248   1.402       .  A
C1244      C1245   1.418       .  A
C1245      C1246   1.403       .  A
C1245      H1254   1.079       .  S
C1246      C1247   1.402       .  A
C1246      H1255   1.083       .  S
C1247      C1248   1.405       .  A
C1248      H1256   1.085       .  S
C1257      C1258   1.402       .  A
C1257      C1262   1.404       .  A
C1258      C1259   1.399       .  A
C1258      H1271   1.082       .  S
C1259      C1260   1.416       .  A
C1259      H1272   1.077       .  S
C1260      C1266   1.433       .  A
C1260      C1261   1.421       .  A
C1261      C1263   1.401       .  A
C1261      C1262   1.408       .  A
C1262      H1273   1.083       .  S
C1263      C1264   1.390       .  A
C1263      H1274   1.083       .  S
C1264      C1265   1.400       .  A
C1264      H1275   1.084       .  S
C1265      C1266   1.423       .  A
C1265      C1270   1.409       .  A
C1266      C1267   1.413       .  A
C1267      C1268   1.396       .  A
C1267      H1276   1.075       .  S
C1268      C1269   1.403       .  A
C1268      H1277   1.083       .  S
C1269      C1270   1.404       .  A
C1270      H1278   1.084       .  S
C1279      C1280   1.406       .  A
C1279      C1284   1.405       .  A
C1280      C1281   1.393   1_554  A
C1280      H1293   1.083       .  S
C1281      C1282   1.410       .  A
C1281      H1294   1.078       .  S
C1282      C1288   1.432       .  A
C1282      C1283   1.424       .  A
C1283      C1285   1.400       .  A
C1283      C1284   1.414   1_556  A
C1284      H1295   1.084       .  S
C1285      C1286   1.390       .  A
C1285      H1296   1.078       .  S
C1286      C1287   1.399       .  A
C1286      H1297   1.084       .  S
C1287      C1288   1.420       .  A
C1287      C1292   1.404       .  A
C1288      C1289   1.417       .  A
C1289      C1290   1.398       .  A
C1289      H1298   1.077       .  S
C1290      C1291   1.397       .  A
C1290      H1299   1.078       .  S
C1291      C1292   1.406       .  A
C1292      H1300   1.084       .  S
C1301      C2646   1.399       .  A
C1301      C1306   1.399       .  A
C1302      C2645   1.399       .  A
C1302      C1303   1.392       .  A
C1302      H1315   1.081       .  S
C1303      C2648   1.410       .  A
C1303      H1316   1.075       .  S
C1304      C2647   1.410       .  A
C1304      C1310   1.426       .  A
C1304      C1305   1.423       .  A
C1305      C1307   1.399       .  A
C1305      C1306   1.406       .  A
C1306      H1317   1.085       .  S
C1307      C1308   1.392       .  A
C1307      H1318   1.084       .  S
C1308      C1309   1.400       .  A
C1308      H1319   1.084       .  S
C1309      C1310   1.419       .  A
C1309      C1314   1.404   1_556  A
C1310      C2655   1.415       .  A
C1311      C2654   1.416       .  A
C1311      C1312   1.396   1_556  A
C1311      H1320   1.077       .  S
C1312      C2657   1.393       .  A
C1312      H1321   1.080       .  S
C1313      C2656   1.393       .  A
C1313      C1314   1.402       .  A
C1314      H1322   1.085   1_655  S
C1323      C1324   1.391       .  A
C1323      C1328   1.403       .  A
C1324      C1325   1.400       .  A
C1324      H1337   1.073       .  S
C1325      C1326   1.418       .  A
C1325      H1338   1.079       .  S
C1326      C1332   1.427       .  A
C1326      C1327   1.421       .  A
C1327      C1329   1.401       .  A
C1327      C1328   1.401       .  A
C1328      H1339   1.086       .  S
C1329      C1330   1.389       .  A
C1329      H1340   1.084       .  S
C1330      C1331   1.398       .  A
C1330      H1341   1.084       .  S
C1331      C1332   1.424       .  A
C1331      C1336   1.405       .  A
C1332      C1333   1.412       .  A
C1333      C1334   1.395       .  A
C1333      H1342   1.079       .  S
C1334      C1335   1.402       .  A
C1334      H1343   1.084       .  S
C1335      C1336   1.396       .  A
C1336      H1344   1.085       .  S
N1345      C1349   1.371       .  A
N1345      C1346   1.362       .  A
N1345      C1406   1.453       .  S
C1346      C1347   1.380       .  A
C1346      C2007   1.469       .  S
C1347      C1348   1.359       .  A
C1347      H1350   1.083       .  S
C1348      C1349   1.391       .  A
C1348      H1351   1.083       .  S
C1349      C1652   1.498       .  S
N1352      C1356   1.349       .  A
N1352      C1353   1.352       .  A
N1352      C1616   1.439       .  S
C1353      C1354   1.392       .  A
C1353      C1995   1.475       .  S
C1354      C1355   1.375       .  A
C1354      H1357   1.083       .  S
C1355      C1356   1.375       .  A
C1355      H1358   1.083       .  S
C1356      C1387   1.461       .  S
N1359      C1363   1.362       .  A
N1359      C1360   1.360       .  A
C1360      C1361   1.374       .  A
C1360      C1973   1.477       .  S
C1361      C1362   1.360       .  A
C1361      H1364   1.083       .  S
C1362      C1363   1.397       .  A
C1362      H1365   1.081       .  S
C1363      C1386   1.497       .  S
N1366      C1370   1.354       .  A
N1366      C1367   1.355       .  A
C1367      C1368   1.381       .  A
C1367      C1985   1.471       .  S
C1368      C1369   1.369       .  A
C1368      H1371   1.083   1_554  S
C1369      C1370   1.384       .  A
C1369      H1372   1.081       .  S
C1370      C1402   1.469       .  S
O1373     Ni1379   1.947       .  S
O1373      C1394   1.278       .  A
O1374     Ni1397   1.889       .  S
O1374      C1383   1.266       .  A
O1375     Ni1379   1.894       .  S
O1375     Ni1397   1.926       .  S
O1375     Ni1391   1.906       .  S
O1375      H1398   0.966       .  S
C1376      C1589   1.482       .  S
C1376      O1393   1.275       .  A
C1376      O1385   1.274       .  A
O1377     Ni1396   1.951       .  S
O1377      C1383   1.279       .  A
O1378     Ni1396   1.941       .  S
O1378      C1380   1.272       .  A
Ni1379     O1382   1.968       .  S
Ni1379     O1384   1.888       .  S
C1380      C1436   1.474       .  S
C1380      O1390   1.265       .  A
O1381     Ni1397   1.874       .  S
O1381      C1387   1.266       .  A
O1382      C1387   1.283       .  A
C1383      C1941   1.485       .  S
O1384      C1386   1.255       .  A
O1385     Ni1396   1.933       .  S
C1386      O1392   1.275       .  A
H1388      O1389   0.966       .  S
O1389     Ni1397   1.891       .  S
O1389     Ni1391   1.898       .  S
O1389     Ni1396   1.928       .  S
O1390     Ni1391   1.911       .  S
Ni1391     O1395   1.897       .  S
Ni1391     O1393   1.896       .  S
O1392     Ni1397   1.990       .  S
C1394      C1963   1.489       .  S
C1394      O1395   1.266       .  A
O1399     Ni1405   1.968       .  S
O1399      C1420   1.285       .  A
O1400     Ni1423   1.892       .  S
O1400      C1409   1.268       .  A
O1401     Ni1405   1.884       .  S
O1401     Ni1423   1.887       .  S
O1401     Ni1417   1.880       .  S
O1401      H1424   0.966       .  S
C1402      O1419   1.273       .  A
C1402      O1411   1.280       .  A
O1403     Ni1422   1.949       .  S
O1403      C1409   1.278       .  A
O1404     Ni1422   1.906       .  S
O1404      C1406   1.273       .  A
Ni1405     O1408   1.951       .  S
Ni1405     O1410   1.936       .  S
C1406      O1416   1.278       .  A
O1407     Ni1423   1.901       .  S
O1407      C1413   1.277       .  A
O1408      C1413   1.284       .  A
C1409      C1929   1.487       .  S
O1410      C1412   1.280       .  A
O1411     Ni1422   1.927       .  S
C1412      N1592   1.476       .  S
C1412      O1418   1.281       .  A
C1413      C1429   1.494       .  S
H1414      O1415   0.966       .  S
O1415     Ni1423   1.900       .  S
O1415     Ni1417   1.896       .  S
O1415     Ni1422   1.894       .  S
O1416     Ni1417   1.959       .  S
Ni1417     O1421   1.884       .  S
Ni1417     O1419   1.902       .  S
O1418     Ni1423   1.971       .  S
C1420      C1951   1.489       .  S
C1420      O1421   1.268       .  A
N1425      C1429   1.367       .  A
N1425      C1426   1.359       .  A
N1425      C1468   1.432       .  S
C1426      C1427   1.380       .  A
C1426      C1907   1.483       .  S
C1427      C1428   1.369       .  A
C1427      H1430   1.082       .  S
C1428      C1429   1.381       .  A
C1428      H1431   1.075       .  S
N1432      C1436   1.366       .  A
N1432      C1433   1.367       .  A
N1432      C1452   1.444       .  S
C1433      C1434   1.383       .  A
C1433      C1919   1.491       .  S
C1434      C1435   1.360       .  A
C1434      H1437   1.083       .  S
C1435      C1436   1.379       .  A
C1435      H1438   1.083       .  S
O1439     Ni1445   1.955       .  S
O1439      C1460   1.282       .  A
O1440     Ni1463   1.895       .  S
O1440      C1449   1.268       .  A
O1441     Ni1445   1.907       .  S
O1441     Ni1463   1.896       .  S
O1441     Ni1457   1.913       .  S
O1441      H1464   0.966       .  S
C1442      C1502   1.493       .  S
C1442      O1459   1.283       .  A
C1442      O1451   1.276       .  A
O1443     Ni1462   1.936       .  S
O1443      C1449   1.273       .  A
O1444     Ni1462   1.907       .  S
O1444      C1446   1.277       .  A
Ni1445     O1448   1.967       .  S
Ni1445     O1450   1.920       .  S
C1446      O1456   1.272       .  A
O1447     Ni1463   1.887       .  S
O1447      C1453   1.265       .  A
O1448      C1453   1.284       .  A
C1449      C1885   1.471       .  S
O1450      C1452   1.271       .  A
O1451     Ni1462   1.931       .  S
C1452      O1458   1.278       .  A
C1453      C1509   1.488       .  S
H1454      O1455   0.966       .  S
O1455     Ni1463   1.901       .  S
O1455     Ni1457   1.890       .  S
O1455     Ni1462   1.900       .  S
O1456     Ni1457   1.941       .  S
Ni1457     O1461   1.893       .  S
Ni1457     O1459   1.931       .  S
O1458     Ni1463   1.944       .  S
C1460      C1863   1.486       .  S
C1460      O1461   1.270       .  A
O1465     Ni1471   1.930       .  S
O1465      C1486   1.272       .  A
O1466     Ni1489   1.896       .  S
O1466      C1475   1.261       .  A
O1467     Ni1471   1.939       .  S
O1467     Ni1489   1.929       .  S
O1467     Ni1483   1.925       .  S
O1467      H1490   0.966       .  S
C1468      O1485   1.273       .  A
C1468      O1477   1.276       .  A
O1469     Ni1488   1.940       .  S
O1469      C1475   1.272       .  A
O1470     Ni1488   1.918       .  S
O1470      C1472   1.265       .  A
Ni1471     O1474   1.942   1_655  S
Ni1471     O1476   1.908       .  S
C1472      C1516   1.509       .  S
C1472      O1482   1.270       .  A
O1473     Ni1489   1.877       .  S
O1473      C1479   1.254       .  A
O1474      C1479   1.273   1_455  A
C1475      C1897   1.469       .  S
O1476      C1478   1.270       .  A
O1477     Ni1488   1.927       .  S
C1478      C1495   1.486       .  S
C1478      O1484   1.280       .  A
H1480      O1481   0.966       .  S
O1481     Ni1489   1.862       .  S
O1481     Ni1483   1.916       .  S
O1481     Ni1488   1.890       .  S
O1482     Ni1483   1.965       .  S
Ni1483     O1487   1.899       .  S
Ni1483     O1485   1.896       .  S
O1484     Ni1489   1.964       .  S
C1486      C1875   1.472       .  S
C1486      O1487   1.267       .  A
N1491      C1495   1.360       .  A
N1491      C1492   1.365       .  A
N1491      C1552   1.440       .  S
C1492      C1493   1.380       .  A
C1492      C1841   1.503       .  S
C1493      C1494   1.373       .  A
C1493      H1496   1.083       .  S
C1494      C1495   1.386       .  A
C1494      H1497   1.079       .  S
N1498      C1502   1.374       .  A
N1498      C1499   1.371       .  A
N1498      C1533   1.452       .  S
C1499      C1500   1.381       .  A
C1499      C1853   1.489       .  S
C1500      C1501   1.357       .  A
C1500      H1503   1.083       .  S
C1501      C1502   1.377       .  A
C1501      H1504   1.072       .  S
N1505      C2181   1.371   1_545  A
N1505      C1506   1.371       .  A
N1505      C1522   1.448       .  S
C1506      C2179   1.388   1_545  A
C1506      C1819   1.508       .  S
C1507      C2178   1.389       .  A
C1507      C1508   1.358       .  A
C1507      H1510   1.078       .  S
C1508      C1509   1.373       .  A
C1508      H1511   1.083       .  S
C1509      N2177   1.371       .  A
N1512      C2188   1.369   1_545  A
N1512      C1513   1.357       .  A
N1512      C1558   1.467       .  S
C1513      C2186   1.389   1_545  A
C1513      C1831   1.497       .  S
C1514      C2185   1.389       .  A
C1514      C1515   1.375       .  A
C1514      H1517   1.078       .  S
C1515      C1516   1.386       .  A
C1515      H1518   1.077       .  S
C1516      N2184   1.368       .  A
O1519     Ni1525   1.929       .  S
O1519      C1540   1.279       .  A
O1520     Ni1543   1.890       .  S
O1520      C1529   1.262       .  A
O1521     Ni1525   1.897       .  S
O1521     Ni1543   1.895       .  S
O1521     Ni1537   1.925       .  S
O1521      H1544   0.966       .  S
C1522      O1539   1.286       .  A
C1522      O1531   1.274       .  A
O1523     Ni1542   1.929       .  S
O1523      C1529   1.272       .  A
O1524     Ni1542   1.899       .  S
O1524      C1526   1.274       .  A
Ni1525     O1528   1.944       .  S
Ni1525     O1530   1.930       .  S
C1526      C1582   1.502       .  S
C1526      O1536   1.284       .  A
O1527     Ni1543   1.924       .  S
O1527      C1533   1.276       .  A
O1528      C1533   1.281       .  A
C1529      C1775   1.469       .  S
O1530      C1532   1.270       .  A
O1531     Ni1542   1.923       .  S
C1532      O1538   1.271       .  A
H1534      O1535   0.962       .  S
O1535     Ni1543   1.911       .  S
O1535     Ni1537   1.905       .  S
O1535     Ni1542   1.875       .  S
O1536     Ni1537   1.966       .  S
Ni1537     O1541   1.926       .  S
Ni1537     O1539   1.956       .  S
O1538     Ni1543   1.944       .  S
C1540      C1809   1.490       .  S
C1540      O1541   1.281       .  A
O1545     Ni1551   1.914       .  S
O1545      C1566   1.269       .  A
O1546     Ni1569   1.901       .  S
O1546      C1555   1.270       .  A
O1547     Ni1551   1.906       .  S
O1547     Ni1569   1.911       .  S
O1547     Ni1563   1.904       .  S
O1547      H1570   0.966       .  S
C1548      O1565   1.260       .  A
C1548      O1557   1.265       .  A
O1549     Ni1568   1.903       .  S
O1549      C1555   1.267       .  A
O1550     Ni1568   1.885       .  S
O1550      C1552   1.265       .  A
Ni1551     O1554   1.936       .  S
Ni1551     O1556   1.910       .  S
C1552      O1562   1.290       .  A
O1553     Ni1569   1.945       .  S
O1553      C1559   1.275       .  A
O1554      C1559   1.273       .  A
C1555      C1787   1.473       .  S
O1556      C1558   1.269       .  A
O1557     Ni1568   1.926       .  S
C1558      O1564   1.285       .  A
C1559      N1571   1.453       .  S
H1560      O1561   0.966       .  S
O1561     Ni1569   1.935       .  S
O1561     Ni1563   1.915       .  S
O1561     Ni1568   1.927       .  S
O1562     Ni1563   1.977       .  S
Ni1563     O1567   1.925       .  S
Ni1563     O1565   1.886       .  S
O1564     Ni1569   1.975       .  S
C1566      C1797   1.492       .  S
C1566      O1567   1.274       .  A
N1571      C1575   1.367       .  A
N1571      C1572   1.365       .  A
C1572      C1573   1.386       .  A
C1572      C1753   1.473       .  S
C1573      C1574   1.352       .  A
C1573      H1576   1.083       .  S
C1574      C1575   1.377       .  A
C1574      H1577   1.081       .  S
C1575      C1642   1.471       .  S
N1578      C1582   1.366       .  A
N1578      C1579   1.362       .  A
N1578      C1626   1.458       .  S
C1579      C1580   1.381       .  A
C1579      C1765   1.491       .  S
C1580      C1581   1.367       .  A
C1580      H1583   1.081   1_545  S
C1581      C1582   1.393       .  A
C1581      H1584   1.067       .  S
N1585      C2261   1.371   1_545  A
N1585      C1586   1.364       .  A
N1585      C1627   1.454       .  S
C1586      C2259   1.376   1_545  A
C1586      C1731   1.464       .  S
C1587      C2258   1.376       .  A
C1587      C1588   1.348       .  A
C1587      H1590   1.083       .  S
C1588      C1589   1.387       .  A
C1588      H1591   1.083       .  S
C1589      N2257   1.375       .  A
N1592      C2268   1.372       .  A
N1592      C1593   1.365       .  A
C1593      C2266   1.380       .  A
C1593      C1743   1.494       .  S
C1594      C2265   1.381       .  A
C1594      C1595   1.367       .  A
C1594      H1597   1.078       .  S
C1595      C1596   1.387       .  A
C1595      H1598   1.080       .  S
C1596      N2264   1.370       .  A
C1596      C1646   1.504       .  S
N1599      C1603   1.370       .  A
N1599      C1600   1.365       .  A
N1599      C1620   1.451       .  S
C1600      C1601   1.377       .  A
C1600      C1709   1.492       .  S
C1601      H1604   1.082       .  S
C1602      H1605   1.079       .  S
N1606      C1610   1.362       .  A
N1606      C1607   1.363       .  A
N1606      C1653   1.450       .  S
C1607      C1608   1.391       .  A
C1607      C1721   1.484       .  S
C1608      H1611   1.083       .  S
C1609      H1612   1.081       .  S
O1613     Ni1619   1.947       .  S
O1613      C1634   1.277       .  A
O1614     Ni1637   1.899       .  S
O1614      C1623   1.266       .  A
O1615     Ni1619   1.904       .  S
O1615     Ni1637   1.905       .  S
O1615     Ni1631   1.898       .  S
O1615      H1638   0.966       .  S
C1616      O1633   1.260       .  A
C1616      O1625   1.263       .  A
O1617     Ni1636   1.916       .  S
O1617      C1623   1.265       .  A
O1618     Ni1636   1.909       .  S
O1618      C1620   1.274       .  A
Ni1619     O1622   1.961       .  S
Ni1619     O1624   1.914       .  S
C1620      O1630   1.283       .  A
O1621     Ni1637   1.916       .  S
O1621      C1627   1.273       .  A
O1622      C1627   1.281       .  A
C1623      C1687   1.468       .  S
O1624      C1626   1.270       .  A
O1625     Ni1636   1.895       .  S
C1626      O1632   1.276       .  A
H1628      O1629   0.966       .  S
O1629     Ni1637   1.928       .  S
O1629     Ni1631   1.935       .  S
O1629     Ni1636   1.919       .  S
O1630     Ni1631   1.965       .  S
Ni1631     O1635   1.897       .  S
Ni1631     O1633   1.915       .  S
O1632     Ni1637   1.952       .  S
C1634      C1677   1.488       .  S
C1634      O1635   1.266       .  A
O1639     Ni1645   1.962       .  S
O1639      C1660   1.278       .  A
O1640     Ni1663   1.898       .  S
O1640      C1649   1.269       .  A
O1641     Ni1645   1.893       .  S
O1641     Ni1663   1.908       .  S
O1641     Ni1657   1.893       .  S
O1641      H1664   0.966       .  S
C1642      O1659   1.272       .  A
C1642      O1651   1.278       .  A
O1643     Ni1662   1.924       .  S
O1643      C1649   1.273       .  A
O1644     Ni1662   1.914       .  S
O1644      C1646   1.267       .  A
Ni1645     O1648   1.931       .  S
Ni1645     O1650   1.915       .  S
C1646      O1656   1.271       .  A
O1647     Ni1663   1.938       .  S
O1647      C1653   1.278       .  A
O1648      C1653   1.278       .  A
C1649      C1699   1.461       .  S
O1650      C1652   1.273       .  A
O1651     Ni1662   1.954       .  S
C1652      O1658   1.277       .  A
H1654      O1655   0.966       .  S
O1655     Ni1663   1.914       .  S
O1655     Ni1657   1.905       .  S
O1655     Ni1662   1.892       .  S
O1656     Ni1657   1.968       .  S
Ni1657     O1661   1.891       .  S
Ni1657     O1659   1.884       .  S
O1658     Ni1663   1.953       .  S
C1660      C1665   1.489       .  S
C1660      O1661   1.262       .  A
C1665      C1666   1.402       .  A
C1665      C1670   1.404       .  A
C1666      C1667   1.403       .  A
C1666      H1679   1.083       .  S
C1667      C1668   1.413       .  A
C1667      H1680   1.073       .  S
C1668      C1674   1.433       .  A
C1668      C1669   1.418       .  A
C1669      C1671   1.396       .  A
C1669      C1670   1.404       .  A
C1670      H1681   1.084       .  S
C1671      C1672   1.390       .  A
C1671      H1682   1.079       .  S
C1672      C1673   1.396       .  A
C1672      H1683   1.080       .  S
C1673      C1674   1.421       .  A
C1673      C1678   1.406       .  A
C1674      C1675   1.413       .  A
C1675      C1676   1.400       .  A
C1675      H1684   1.078       .  S
C1676      C1677   1.404       .  A
C1676      H1685   1.083       .  S
C1677      C1678   1.402       .  A
C1678      H1686   1.085       .  S
C1687      C1688   1.390       .  A
C1687      C1692   1.405       .  A
C1688      C1689   1.381       .  A
C1688      H1701   1.082       .  S
C1689      C1690   1.408       .  A
C1689      H1702   1.072       .  S
C1690      C1696   1.422       .  A
C1690      C1691   1.421       .  A
C1691      C1693   1.402       .  A
C1691      C1692   1.413       .  A
C1692      H1703   1.084       .  S
C1693      C1694   1.398       .  A
C1693      H1704   1.084       .  S
C1694      C1695   1.401       .  A
C1694      H1705   1.083       .  S
C1695      C1696   1.423       .  A
C1695      C1700   1.414   1_556  A
C1696      C1697   1.410       .  A
C1697      C1698   1.380   1_556  A
C1697      H1706   1.075       .  S
C1698      C1699   1.394       .  A
C1698      H1707   1.085       .  S
C1699      C1700   1.401       .  A
C1700      H1708   1.084       .  S
C1709      C1710   1.403       .  A
C1709      C1714   1.404       .  A
C1710      C1711   1.394       .  A
C1711      C1712   1.410       .  A
C1712      C1718   1.428       .  A
C1712      C1713   1.422       .  A
C1713      C1715   1.399       .  A
C1713      C1714   1.407       .  A
C1714      H1725   1.084       .  S
C1715      C1716   1.391       .  A
C1715      H1726   1.084       .  S
C1716      C1717   1.400       .  A
C1716      H1727   1.084       .  S
C1717      C1718   1.420       .  A
C1717      C1722   1.403       .  A
C1718      C1719   1.416       .  A
C1719      C1720   1.398   1_556  A
C1720      C1721   1.400       .  A
C1721      C1722   1.404   1_554  A
C1722      H1730   1.085       .  S
C1731      C2404   1.402       .  A
C1731      C1736   1.398       .  A
C1732      C2403   1.402       .  A
C1732      C1733   1.399       .  A
C1732      H1745   1.083       .  S
C1733      C2406   1.412       .  A
C1733      H1746   1.078       .  S
C1734      C2405   1.413       .  A
C1734      C2412   1.431       .  A
C1734      C1735   1.423       .  A
C1735      C1737   1.395       .  A
C1735      C1736   1.403       .  A
C1736      H1747   1.085       .  S
C1737      C1738   1.387       .  A
C1737      H1748   1.084       .  S
C1738      C1739   1.399       .  A
C1738      H1749   1.083       .  S
C1739      C2412   1.418       .  A
C1739      C1744   1.400   1_556  A
C1740      C2406   1.430       .  A
C1740      C2411   1.417       .  A
C1740      C1741   1.416   1_556  A
C1741      C1742   1.403       .  A
C1741      H1750   1.078       .  S
C1742      C1743   1.402       .  A
C1742      H1751   1.083       .  S
C1743      C2416   1.408       .  A
C1744      C2415   1.406       .  A
C1744      H1752   1.080       .  S
C1753      C1754   1.398       .  A
C1753      C1758   1.406       .  A
C1754      C1755   1.387       .  A
C1754      H1767   1.079       .  S
C1755      C1756   1.410       .  A
C1755      H1768   1.076   1_545  S
C1756      C1762   1.427       .  A
C1756      C1757   1.422       .  A
C1757      C1759   1.402       .  A
C1757      C1758   1.414       .  A
C1758      H1769   1.085       .  S
C1759      C1760   1.396       .  A
C1759      H1770   1.083       .  S
C1760      C1761   1.402       .  A
C1760      H1771   1.084       .  S
C1761      C1762   1.420       .  A
C1761      C1766   1.411       .  A
C1762      C1763   1.412       .  A
C1763      C1764   1.389       .  A
C1763      H1772   1.076   1_545  S
C1764      C1765   1.401       .  A
C1764      H1773   1.080   1_545  S
C1765      C1766   1.407       .  A
C1766      H1774   1.084       .  S
C1775      C1776   1.401       .  A
C1775      C1780   1.397       .  A
C1776      C1777   1.393       .  A
C1776      H1789   1.083       .  S
C1777      C1778   1.413       .  A
C1777      H1790   1.077   1_655  S
C1778      C1784   1.424       .  A
C1778      C1779   1.422       .  A
C1779      C1781   1.394       .  A
C1779      C1780   1.396       .  A
C1780      H1791   1.085       .  S
C1781      C1782   1.384       .  A
C1781      H1792   1.081       .  S
C1782      C1783   1.389       .  A
C1782      H1793   1.070       .  S
C1783      C1784   1.419       .  A
C1783      C1788   1.398       .  A
C1784      C1785   1.410       .  A
C1785      C1786   1.393       .  A
C1785      H1794   1.075   1_655  S
C1786      C1787   1.404       .  A
C1786      H1795   1.082   1_655  S
C1787      C1788   1.395       .  A
C1788      H1796   1.085       .  S
C1797      C1798   1.401       .  A
C1797      C1802   1.409       .  A
C1798      C1799   1.403   1_554  A
C1798      H1811   1.083       .  S
C1799      C1800   1.419       .  A
C1799      H1812   1.078       .  S
C1800      C1806   1.432       .  A
C1800      C1801   1.418       .  A
C1801      C1803   1.401       .  A
C1801      C1802   1.403   1_556  A
C1802      H1813   1.084       .  S
C1803      C1804   1.391       .  A
C1803      H1814   1.084       .  S
C1804      C1805   1.396       .  A
C1804      H1815   1.079       .  S
C1805      C1806   1.424       .  A
C1805      C1810   1.413       .  A
C1806      C1807   1.407       .  A
C1807      C1808   1.392       .  A
C1807      H1816   1.075       .  S
C1808      C1809   1.406       .  A
C1808      H1817   1.083       .  S
C1809      C1810   1.403       .  A
C1810      H1818   1.084       .  S
C1819      C1820   1.405       .  A
C1819      C2496   1.408   1_545  A
C1820      C1821   1.419       .  A
C1820      H1833   1.082       .  S
C1821      C1822   1.424       .  A
C1821      H1834   1.079       .  S
C1822      C1828   1.442   1_556  A
C1822      C2495   1.417   1_545  A
C1823      C2494   1.417       .  A
C1823      C1825   1.398       .  A
C1823      C1824   1.394       .  A
C1824      C2491   1.409       .  A
C1824      H1835   1.083       .  S
C1825      C1826   1.379   1_556  A
C1825      H1836   1.080       .  S
C1826      C1827   1.394       .  A
C1826      H1837   1.084       .  S
C1827      C2500   1.426       .  A
C1827      C1832   1.400       .  A
C1828      C2499   1.425   1_545  A
C1828      C1829   1.417       .  A
C1829      C1830   1.411       .  A
C1829      H1838   1.079       .  S
C1830      C1831   1.408       .  A
C1830      H1839   1.082       .  S
C1831      C2504   1.397   1_545  A
C1832      C2503   1.399       .  A
C1832      H1840   1.083       .  S
C1841      C1842   1.407       .  A
C1841      C1846   1.404       .  A
C1842      C1843   1.404       .  A
C1842      H1855   1.083       .  S
C1843      C1844   1.414       .  A
C1843      H1856   1.077       .  S
C1844      C1850   1.440       .  A
C1844      C1845   1.424       .  A
C1845      C1847   1.398       .  A
C1845      C1846   1.411       .  A
C1846      H1857   1.083       .  S
C1847      C1848   1.389       .  A
C1847      H1858   1.084   1_655  S
C1848      C1849   1.398       .  A
C1848      H1859   1.079   1_655  S
C1849      C1850   1.420       .  A
C1849      C1854   1.407       .  A
C1850      C1851   1.419       .  A
C1851      C1852   1.408       .  A
C1851      H1860   1.078       .  S
C1852      C1853   1.402       .  A
C1852      H1861   1.083       .  S
C1853      C1854   1.405       .  A
C1854      H1862   1.086   1_655  S
C1863      C1864   1.401       .  A
C1863      C1868   1.400       .  A
C1864      C1865   1.400       .  A
C1864      H1877   1.081       .  S
C1865      C1866   1.411       .  A
C1865      H1878   1.078   1_655  S
C1866      C1872   1.431       .  A
C1866      C1867   1.419       .  A
C1867      C1869   1.392       .  A
C1867      C1868   1.407       .  A
C1868      H1879   1.084       .  S
C1869      C1870   1.387       .  A
C1869      H1880   1.072       .  S
C1870      C1871   1.397       .  A
C1870      H1881   1.084       .  S
C1871      C1872   1.423       .  A
C1871      C1876   1.402       .  A
C1872      C1873   1.415       .  A
C1873      C1874   1.399       .  A
C1873      H1882   1.078       .  S
C1874      C1875   1.400       .  A
C1874      H1883   1.083       .  S
C1875      C1876   1.398       .  A
C1876      H1884   1.085       .  S
C1885      C1886   1.398       .  A
C1885      C1890   1.397       .  A
C1886      C1887   1.401       .  A
C1886      H1899   1.083       .  S
C1887      C1888   1.418       .  A
C1887      H1900   1.077       .  S
C1888      C1894   1.430       .  A
C1888      C1889   1.421       .  A
C1889      C1891   1.398       .  A
C1889      C1890   1.397       .  A
C1890      H1901   1.079       .  S
C1891      C1892   1.385       .  A
C1891      H1902   1.084       .  S
C1892      C1893   1.396       .  A
C1892      H1903   1.083       .  S
C1893      C1894   1.424       .  A
C1893      C1898   1.401   1_556  A
C1894      C1895   1.414       .  A
C1895      C1896   1.398   1_556  A
C1895      H1904   1.077       .  S
C1896      C1897   1.399       .  A
C1896      H1905   1.083       .  S
C1897      C1898   1.395       .  A
C1898      H1906   1.085       .  S
C1907      C1908   1.399       .  A
C1907      C1912   1.403       .  A
C1908      C1909   1.396       .  A
C1908      H1921   1.081       .  S
C1909      C1910   1.408       .  A
C1909      H1922   1.076       .  S
C1910      C1916   1.427       .  A
C1910      C1911   1.420       .  A
C1911      C1913   1.399       .  A
C1911      C1912   1.410       .  A
C1912      H1923   1.084       .  S
C1913      C1914   1.394       .  A
C1913      H1924   1.084       .  S
C1914      C1915   1.403       .  A
C1914      H1925   1.084       .  S
C1915      C1916   1.419       .  A
C1915      C1920   1.403       .  A
C1916      C1917   1.417       .  A
C1917      C1918   1.404       .  A
C1917      H1926   1.078       .  S
C1918      C1919   1.402       .  A
C1918      H1927   1.082       .  S
C1919      C1920   1.406       .  A
C1920      H1928   1.085       .  S
C1929      C1930   1.402       .  A
C1929      C1934   1.403       .  A
C1930      C1931   1.400       .  A
C1930      H1943   1.082       .  S
C1931      C1932   1.416       .  A
C1931      H1944   1.077       .  S
C1932      C1938   1.431       .  A
C1932      C1933   1.420       .  A
C1933      C1935   1.399       .  A
C1933      C1934   1.405       .  A
C1934      H1945   1.083       .  S
C1935      C1936   1.388       .  A
C1935      H1946   1.081       .  S
C1936      C1937   1.398       .  A
C1936      H1947   1.084       .  S
C1937      C1938   1.423       .  A
C1937      C1942   1.406       .  A
C1938      C1939   1.412       .  A
C1939      C1940   1.396       .  A
C1939      H1948   1.076       .  S
C1940      C1941   1.404       .  A
C1940      H1949   1.083       .  S
C1941      C1942   1.402       .  A
C1942      H1950   1.084       .  S
C1951      C1952   1.405       .  A
C1951      C1956   1.404       .  A
C1952      C1953   1.393       .  A
C1952      H1965   1.083       .  S
C1953      C1954   1.411   1_554  A
C1953      H1966   1.077   1_554  S
C1954      C1960   1.432       .  A
C1954      C1955   1.423       .  A
C1955      C1957   1.399       .  A
C1955      C1956   1.412   1_556  A
C1956      H1967   1.084       .  S
C1957      C1958   1.391       .  A
C1957      H1968   1.080       .  S
C1958      C1959   1.399       .  A
C1958      H1969   1.084       .  S
C1959      C1960   1.421       .  A
C1959      C1964   1.408       .  A
C1960      C1961   1.415       .  A
C1961      C1962   1.397       .  A
C1961      H1970   1.077       .  S
C1962      C1963   1.399       .  A
C1962      H1971   1.079       .  S
C1963      C1964   1.405       .  A
C1964      H1972   1.084       .  S
C1973      C1978   1.400       .  A
C1974      C1975   1.392       .  A
C1974      H1987   1.083       .  S
C1975      H1988   1.076       .  S
C1976      C1982   1.425       .  A
C1976      C1977   1.423       .  A
C1977      C1979   1.399       .  A
C1977      C1978   1.406       .  A
C1978      H1989   1.085       .  S
C1979      C1980   1.391       .  A
C1979      H1990   1.084       .  S
C1980      C1981   1.400       .  A
C1980      H1991   1.084       .  S
C1981      C1982   1.420       .  A
C1981      C1986   1.401       .  A
C1983      C1984   1.396   1_556  A
C1983      H1992   1.077       .  S
C1984      H1993   1.077       .  S
C1985      C1986   1.401   1_554  A
C1986      H1994   1.085   1_556  S
C1995      C1996   1.391       .  A
C1995      C2000   1.403       .  A
C1996      C1997   1.399       .  A
C1996      H2009   1.075       .  S
C1997      C1998   1.418       .  A
C1997      H2010   1.078       .  S
C1998      C2004   1.428       .  A
C1998      C1999   1.421       .  A
C1999      C2001   1.401       .  A
C1999      C2000   1.400       .  A
C2000      H2011   1.086       .  S
C2001      C2002   1.389       .  A
C2001      H2012   1.084       .  S
C2002      C2003   1.398       .  A
C2002      H2013   1.083       .  S
C2003      C2004   1.424       .  A
C2003      C2008   1.405       .  A
C2004      C2005   1.412       .  A
C2005      C2006   1.395       .  A
C2005      H2014   1.078       .  S
C2006      C2007   1.401       .  A
C2006      H2015   1.084       .  S
C2007      C2008   1.397       .  A
C2008      H2016   1.085       .  S
N2017      C2021   1.367       .  A
N2017      C2018   1.360       .  A
N2017      C2078   1.447       .  S
C2018      C2019   1.378       .  A
C2018      C2679   1.469       .  S
C2019      C2020   1.359       .  A
C2019      H2022   1.082       .  S
C2020      C2021   1.391       .  A
C2020      H2023   1.083       .  S
C2021      C2324   1.493       .  S
N2024      C2028   1.350       .  A
N2024      C2025   1.353       .  A
N2024      C2288   1.443       .  S
C2025      C2026   1.392       .  A
C2025      C2667   1.476       .  S
C2026      C2027   1.373       .  A
C2026      H2029   1.083       .  S
C2027      C2028   1.376       .  A
C2027      H2030   1.083       .  S
C2028      C2059   1.461       .  S
N2031      C2035   1.361       .  A
N2031      C2032   1.361       .  A
C2032      C2033   1.375       .  A
C2032      C2645   1.479       .  S
C2033      C2034   1.360       .  A
C2033      H2036   1.083       .  S
C2034      C2035   1.396       .  A
C2034      H2037   1.082       .  S
C2035      C2058   1.494       .  S
N2038      C2042   1.356       .  A
N2038      C2039   1.355       .  A
C2039      C2040   1.381       .  A
C2039      C2657   1.472       .  S
C2040      C2041   1.368       .  A
C2040      H2043   1.083   1_554  S
C2041      C2042   1.384       .  A
C2041      H2044   1.081       .  S
C2042      C2074   1.472       .  S
O2045     Ni2051   1.946       .  S
O2045      C2066   1.276       .  A
O2046     Ni2069   1.889       .  S
O2046      C2055   1.265       .  A
O2047     Ni2051   1.900       .  S
O2047     Ni2069   1.931       .  S
O2047     Ni2063   1.904       .  S
O2047      H2070   0.966       .  S
C2048      C2261   1.477       .  S
C2048      O2065   1.271       .  A
C2048      O2057   1.273       .  A
O2049     Ni2068   1.949       .  S
O2049      C2055   1.278       .  A
O2050     Ni2068   1.938       .  S
O2050      C2052   1.271       .  A
Ni2051     O2054   1.964       .  S
Ni2051     O2056   1.886       .  S
C2052      C2108   1.470       .  S
C2052      O2062   1.262       .  A
O2053     Ni2069   1.876       .  S
O2053      C2059   1.267       .  A
O2054      C2059   1.281       .  A
C2055      C2613   1.483       .  S
O2056      C2058   1.254       .  A
O2057     Ni2068   1.933       .  S
C2058      O2064   1.274       .  A
H2060      O2061   0.966       .  S
O2061     Ni2069   1.893       .  S
O2061     Ni2063   1.903       .  S
O2061     Ni2068   1.936       .  S
O2062     Ni2063   1.904       .  S
Ni2063     O2067   1.892       .  S
Ni2063     O2065   1.881       .  S
O2064     Ni2069   1.988       .  S
C2066      C2635   1.488       .  S
C2066      O2067   1.262       .  A
O2071     Ni2077   1.972       .  S
O2071      C2092   1.286       .  A
O2072     Ni2095   1.894       .  S
O2072      C2081   1.268       .  A
O2073     Ni2077   1.883       .  S
O2073     Ni2095   1.889       .  S
O2073     Ni2089   1.879       .  S
O2073      H2096   0.966       .  S
C2074      O2091   1.273       .  A
C2074      O2083   1.278       .  A
O2075     Ni2094   1.944       .  S
O2075      C2081   1.277       .  A
O2076     Ni2094   1.907       .  S
O2076      C2078   1.274       .  A
Ni2077     O2080   1.955       .  S
Ni2077     O2082   1.932       .  S
C2078      O2088   1.273       .  A
O2079     Ni2095   1.898       .  S
O2079      C2085   1.275       .  A
O2080      C2085   1.285       .  A
C2081      C2601   1.485       .  S
O2082      C2084   1.280       .  A
O2083     Ni2094   1.924       .  S
C2084      N2264   1.472   1_565  S
C2084      O2090   1.280       .  A
C2085      C2101   1.495       .  S
H2086      O2087   0.966       .  S
O2087     Ni2095   1.897       .  S
O2087     Ni2089   1.899       .  S
O2087     Ni2094   1.896       .  S
O2088     Ni2089   1.947       .  S
Ni2089     O2093   1.884       .  S
Ni2089     O2091   1.902       .  S
O2090     Ni2095   1.964       .  S
C2092      C2623   1.492       .  S
C2092      O2093   1.266       .  A
N2097      C2101   1.366       .  A
N2097      C2098   1.358       .  A
N2097      C2140   1.431       .  S
C2098      C2099   1.379       .  A
C2098      C2579   1.479       .  S
C2099      C2100   1.368       .  A
C2099      H2102   1.083       .  S
C2100      C2101   1.381       .  A
C2100      H2103   1.074       .  S
N2104      C2108   1.366       .  A
N2104      C2105   1.366       .  A
N2104      C2124   1.446       .  S
C2105      C2106   1.383       .  A
C2105      C2591   1.489       .  S
C2106      C2107   1.357       .  A
C2106      H2109   1.083       .  S
C2107      C2108   1.378       .  A
C2107      H2110   1.083       .  S
O2111     Ni2117   1.952       .  S
O2111      C2132   1.281       .  A
O2112     Ni2135   1.901       .  S
O2112      C2121   1.270       .  A
O2113     Ni2117   1.905       .  S
O2113     Ni2135   1.898       .  S
O2113     Ni2129   1.911       .  S
O2113      H2136   0.966       .  S
C2114      C2174   1.491       .  S
C2114      O2131   1.280       .  A
C2114      O2123   1.276       .  A
O2115     Ni2134   1.940       .  S
O2115      C2121   1.274       .  A
O2116     Ni2134   1.908       .  S
O2116      C2118   1.277       .  A
Ni2117     O2120   1.961       .  S
Ni2117     O2122   1.918       .  S
C2118      O2128   1.270       .  A
O2119     Ni2135   1.897       .  S
O2119      C2125   1.268       .  A
O2120      C2125   1.283       .  A
C2121      C2557   1.475       .  S
O2122      C2124   1.271       .  A
O2123     Ni2134   1.934       .  S
C2124      O2130   1.280       .  A
C2125      C2181   1.486       .  S
H2126      O2127   0.966       .  S
O2127     Ni2135   1.905       .  S
O2127     Ni2129   1.892       .  S
O2127     Ni2134   1.903       .  S
O2128     Ni2129   1.934       .  S
Ni2129     O2133   1.894       .  S
Ni2129     O2131   1.925       .  S
O2130     Ni2135   1.950       .  S
C2132      C2535   1.487       .  S
C2132      O2133   1.269       .  A
O2137     Ni2143   1.938       .  S
O2137      C2158   1.274       .  A
O2138     Ni2161   1.896       .  S
O2138      C2147   1.260       .  A
O2139     Ni2143   1.935       .  S
O2139     Ni2161   1.931       .  S
O2139     Ni2155   1.926       .  S
O2139      H2162   0.966       .  S
C2140      O2157   1.274       .  A
C2140      O2149   1.276       .  A
O2141     Ni2160   1.943       .  S
O2141      C2147   1.273       .  A
O2142     Ni2160   1.923       .  S
O2142      C2144   1.267       .  A
Ni2143     O2146   1.947       .  S
Ni2143     O2148   1.904       .  S
C2144      C2188   1.515       .  S
C2144      O2154   1.271       .  A
O2145     Ni2161   1.876       .  S
O2145      C2151   1.252       .  A
O2146      C2151   1.274       .  A
C2147      C2569   1.473       .  S
O2148      C2150   1.270       .  A
O2149     Ni2160   1.923       .  S
C2150      C2167   1.483       .  S
C2150      O2156   1.279       .  A
H2152      O2153   0.965       .  S
O2153     Ni2161   1.861       .  S
O2153     Ni2155   1.914       .  S
O2153     Ni2160   1.893       .  S
O2154     Ni2155   1.967       .  S
Ni2155     O2159   1.905       .  S
Ni2155     O2157   1.897       .  S
O2156     Ni2161   1.964       .  S
C2158      C2547   1.481       .  S
C2158      O2159   1.268       .  A
N2163      C2167   1.361       .  A
N2163      C2164   1.362       .  A
N2163      C2224   1.442       .  S
C2164      C2165   1.379       .  A
C2164      C2513   1.496       .  S
C2165      C2166   1.373       .  A
C2165      H2168   1.082       .  S
C2166      C2167   1.387       .  A
C2166      H2169   1.081       .  S
N2170      C2174   1.374       .  A
N2170      C2171   1.369       .  A
N2170      C2205   1.451       .  S
C2171      C2172   1.382       .  A
C2171      C2525   1.484       .  S
C2172      C2173   1.358       .  A
C2172      H2175   1.083       .  S
C2173      C2174   1.378       .  A
C2173      H2176   1.076       .  S
N2177      C2178   1.373       .  A
N2177      C2194   1.447       .  S
C2178      C2491   1.511       .  S
C2179      C2180   1.359       .  A
C2179      H2182   1.079       .  S
C2180      C2181   1.371       .  A
C2180      H2183   1.082       .  S
N2184      C2185   1.360       .  A
N2184      C2230   1.465       .  S
C2185      C2503   1.501       .  S
C2186      C2187   1.377       .  A
C2186      H2189   1.078       .  S
C2187      C2188   1.387       .  A
C2187      H2190   1.077       .  S
O2191     Ni2197   1.917       .  S
O2191      C2212   1.275       .  A
O2192     Ni2215   1.896       .  S
O2192      C2201   1.264       .  A
O2193     Ni2197   1.896       .  S
O2193     Ni2215   1.896       .  S
O2193     Ni2209   1.926       .  S
O2193      H2216   0.966       .  S
C2194      O2211   1.284       .  A
C2194      O2203   1.273       .  A
O2195     Ni2214   1.918       .  S
O2195      C2201   1.272       .  A
O2196     Ni2214   1.904       .  S
O2196      C2198   1.275       .  A
Ni2197     O2200   1.933       .  S
Ni2197     O2202   1.920       .  S
C2198      C2254   1.505       .  S
C2198      O2208   1.286       .  A
O2199     Ni2215   1.933       .  S
O2199      C2205   1.280       .  A
O2200      C2205   1.278       .  A
C2201      C2447   1.466       .  S
O2202      C2204   1.267       .  A
O2203     Ni2214   1.921       .  S
C2204      O2210   1.269       .  A
H2206      O2207   0.961       .  S
O2207     Ni2215   1.914       .  S
O2207     Ni2209   1.904       .  S
O2207     Ni2214   1.868       .  S
O2208     Ni2209   1.970       .  S
Ni2209     O2213   1.926       .  S
Ni2209     O2211   1.955       .  S
O2210     Ni2215   1.939       .  S
C2212      C2481   1.486       .  S
C2212      O2213   1.280       .  A
O2217     Ni2223   1.904       .  S
O2217      C2238   1.267       .  A
O2218     Ni2241   1.899       .  S
O2218      C2227   1.269       .  A
O2219     Ni2223   1.909       .  S
O2219     Ni2241   1.910       .  S
O2219     Ni2235   1.908       .  S
O2219      H2242   0.966       .  S
C2220      O2237   1.262       .  A
C2220      O2229   1.264       .  A
O2221     Ni2240   1.901       .  S
O2221      C2227   1.267       .  A
O2222     Ni2240   1.890       .  S
O2222      C2224   1.267       .  A
Ni2223     O2226   1.929       .  S
Ni2223     O2228   1.907       .  S
C2224      O2234   1.288       .  A
O2225     Ni2241   1.948       .  S
O2225      C2231   1.275       .  A
O2226      C2231   1.270       .  A
C2227      C2459   1.469       .  S
O2228      C2230   1.267       .  A
O2229     Ni2240   1.920       .  S
C2230      O2236   1.286       .  A
C2231      N2243   1.451       .  S
H2232      O2233   0.966       .  S
O2233     Ni2241   1.934       .  S
O2233     Ni2235   1.915       .  S
O2233     Ni2240   1.929       .  S
O2234     Ni2235   1.973       .  S
Ni2235     O2239   1.922       .  S
Ni2235     O2237   1.888       .  S
O2236     Ni2241   1.976       .  S
C2238      C2469   1.487       .  S
C2238      O2239   1.273       .  A
N2243      C2247   1.367       .  A
N2243      C2244   1.366       .  A
C2244      C2245   1.386       .  A
C2244      C2425   1.475       .  S
C2245      C2246   1.353       .  A
C2245      H2248   1.083       .  S
C2246      C2247   1.376       .  A
C2246      H2249   1.081       .  S
C2247      C2314   1.474       .  S
N2250      C2254   1.366       .  A
N2250      C2251   1.364       .  A
N2250      C2298   1.460       .  S
C2251      C2252   1.379       .  A
C2251      C2437   1.492       .  S
C2252      C2253   1.366       .  A
C2252      H2255   1.081       .  S
C2253      C2254   1.391       .  A
C2253      H2256   1.062       .  S
N2257      C2258   1.367       .  A
N2257      C2299   1.458       .  S
C2258      C2403   1.467       .  S
C2259      C2260   1.349       .  A
C2259      H2262   1.083       .  S
C2260      C2261   1.387       .  A
C2260      H2263   1.083       .  S
N2264      C2265   1.364       .  A
C2265      C2415   1.494       .  S
C2266      C2267   1.366       .  A
C2266      H2269   1.077       .  S
C2267      C2268   1.385       .  A
C2267      H2270   1.080       .  S
C2268      C2318   1.507       .  S
N2271      C2275   1.365       .  A
N2271      C2272   1.364       .  A
N2271      C2292   1.449       .  S
C2272      C2273   1.378       .  A
C2272      C2381   1.490       .  S
C2273      H2276   1.082       .  S
C2274      H2277   1.078   1_455  S
N2278      C2282   1.362       .  A
N2278      C2279   1.360       .  A
N2278      C2325   1.448       .  S
C2279      C2280   1.392       .  A
C2279      C2393   1.481       .  S
C2280      H2283   1.083       .  S
C2281      H2284   1.080       .  S
O2285     Ni2291   1.942       .  S
O2285      C2306   1.276       .  A
O2286     Ni2309   1.901       .  S
O2286      C2295   1.267       .  A
O2287     Ni2291   1.905       .  S
O2287     Ni2309   1.904       .  S
O2287     Ni2303   1.905       .  S
O2287      H2310   0.966       .  S
C2288      O2305   1.263       .  A
C2288      O2297   1.265       .  A
O2289     Ni2308   1.916       .  S
O2289      C2295   1.266       .  A
O2290     Ni2308   1.906       .  S
O2290      C2292   1.273       .  A
Ni2291     O2294   1.963       .  S
Ni2291     O2296   1.911       .  S
C2292      O2302   1.285       .  A
O2293     Ni2309   1.923       .  S
O2293      C2299   1.275       .  A
O2294      C2299   1.281       .  A
C2295      C2359   1.469       .  S
O2296      C2298   1.269       .  A
O2297     Ni2308   1.905       .  S
C2298      O2304   1.278       .  A
H2300      O2301   0.966       .  S
O2301     Ni2309   1.935       .  S
O2301     Ni2303   1.930       .  S
O2301     Ni2308   1.922       .  S
O2302     Ni2303   1.967       .  S
Ni2303     O2307   1.902       .  S
Ni2303     O2305   1.922       .  S
O2304     Ni2309   1.954       .  S
C2306      C2349   1.488       .  S
C2306      O2307   1.268       .  A
O2311     Ni2317   1.956       .  S
O2311      C2332   1.277       .  A
O2312     Ni2335   1.902       .  S
O2312      C2321   1.273       .  A
O2313     Ni2317   1.890       .  S
O2313     Ni2335   1.901       .  S
O2313     Ni2329   1.893       .  S
O2313      H2336   0.966       .  S
C2314      O2331   1.272       .  A
C2314      O2323   1.280       .  A
O2315     Ni2334   1.927       .  S
O2315      C2321   1.276       .  A
O2316     Ni2334   1.920       .  S
O2316      C2318   1.271       .  A
Ni2317     O2320   1.924       .  S
Ni2317     O2322   1.910       .  S
C2318      O2328   1.270       .  A
O2319     Ni2335   1.945       .  S
O2319      C2325   1.282       .  A
O2320      C2325   1.277       .  A
C2321      C2371   1.463       .  S
O2322      C2324   1.270       .  A
O2323     Ni2334   1.959       .  S
C2324      O2330   1.279       .  A
H2326      O2327   0.966       .  S
O2327     Ni2335   1.917       .  S
O2327     Ni2329   1.899       .  S
O2327     Ni2334   1.890       .  S
O2328     Ni2329   1.965       .  S
Ni2329     O2333   1.887       .  S
Ni2329     O2331   1.886       .  S
O2330     Ni2335   1.959       .  S
C2332      C2337   1.483       .  S
C2332      O2333   1.261       .  A
C2337      C2338   1.401       .  A
C2337      C2342   1.403       .  A
C2338      C2339   1.401       .  A
C2338      H2351   1.083       .  S
C2339      C2340   1.414       .  A
C2339      H2352   1.074       .  S
C2340      C2346   1.430       .  A
C2340      C2341   1.419       .  A
C2341      C2343   1.398       .  A
C2341      C2342   1.403       .  A
C2342      H2353   1.084       .  S
C2343      C2344   1.390       .  A
C2343      H2354   1.081       .  S
C2344      C2345   1.399       .  A
C2344      H2355   1.083       .  S
C2345      C2346   1.421       .  A
C2345      C2350   1.405       .  A
C2346      C2347   1.414       .  A
C2347      C2348   1.399       .  A
C2347      H2356   1.079       .  S
C2348      C2349   1.403       .  A
C2348      H2357   1.083       .  S
C2349      C2350   1.404       .  A
C2350      H2358   1.084       .  S
C2359      C2360   1.391       .  A
C2359      C2364   1.405       .  A
C2360      C2361   1.383       .  A
C2360      H2373   1.082       .  S
C2361      C2362   1.410       .  A
C2361      H2374   1.073       .  S
C2362      C2368   1.423       .  A
C2362      C2363   1.421       .  A
C2363      C2365   1.402       .  A
C2363      C2364   1.413       .  A
C2364      H2375   1.084       .  S
C2365      C2366   1.398       .  A
C2365      H2376   1.084       .  S
C2366      C2367   1.402       .  A
C2366      H2377   1.083       .  S
C2367      C2368   1.424       .  A
C2367      C2372   1.415   1_556  A
C2368      C2369   1.409       .  A
C2369      C2370   1.380   1_556  A
C2369      H2378   1.075       .  S
C2370      C2371   1.394       .  A
C2370      H2379   1.085       .  S
C2371      C2372   1.402       .  A
C2372      H2380   1.084       .  S
C2381      C2382   1.403       .  A
C2381      C2386   1.402       .  A
C2382      C2383   1.394       .  A
C2383      C2384   1.411       .  A
C2384      C2390   1.428       .  A
C2384      C2385   1.422       .  A
C2385      C2387   1.398       .  A
C2385      C2386   1.405       .  A
C2386      H2397   1.084       .  S
C2387      C2388   1.389       .  A
C2387      H2398   1.084       .  S
C2388      C2389   1.398       .  A
C2388      H2399   1.084       .  S
C2389      C2390   1.420       .  A
C2389      C2394   1.401       .  A
C2390      C2391   1.415       .  A
C2391      C2392   1.397   1_556  A
C2392      C2393   1.400       .  A
C2393      C2394   1.402   1_554  A
C2394      H2402   1.086       .  S
C2403      C2408   1.401       .  A
C2404      C2405   1.399       .  A
C2404      H2417   1.083       .  S
C2405      H2418   1.078       .  S
C2406      C2407   1.422       .  A
C2407      C2409   1.396       .  A
C2407      C2408   1.406       .  A
C2408      H2419   1.085       .  S
C2409      C2410   1.389       .  A
C2409      H2420   1.084       .  S
C2410      C2411   1.399       .  A
C2410      H2421   1.082       .  S
C2411      C2416   1.401   1_556  A
C2412      C2413   1.417   1_556  A
C2413      C2414   1.403       .  A
C2413      H2422   1.078       .  S
C2414      C2415   1.402       .  A
C2414      H2423   1.083       .  S
C2416      H2424   1.079       .  S
C2425      C2426   1.399       .  A
C2425      C2430   1.403       .  A
C2426      C2427   1.388       .  A
C2426      H2439   1.079       .  S
C2427      C2428   1.411       .  A
C2427      H2440   1.076       .  S
C2428      C2434   1.428       .  A
C2428      C2429   1.423       .  A
C2429      C2431   1.401       .  A
C2429      C2430   1.413       .  A
C2430      H2441   1.085       .  S
C2431      C2432   1.395       .  A
C2431      H2442   1.083       .  S
C2432      C2433   1.402       .  A
C2432      H2443   1.084       .  S
C2433      C2434   1.421       .  A
C2433      C2438   1.410       .  A
C2434      C2435   1.412       .  A
C2435      C2436   1.391       .  A
C2435      H2444   1.076       .  S
C2436      C2437   1.403       .  A
C2436      H2445   1.080       .  S
C2437      C2438   1.405       .  A
C2438      H2446   1.084       .  S
C2447      C2448   1.400       .  A
C2447      C2452   1.397       .  A
C2448      C2449   1.394       .  A
C2448      H2461   1.083   1_655  S
C2449      C2450   1.413       .  A
C2449      H2462   1.076   1_655  S
C2450      C2456   1.422       .  A
C2450      C2451   1.420       .  A
C2451      C2453   1.395       .  A
C2451      C2452   1.392       .  A
C2452      H2463   1.085       .  S
C2453      C2454   1.384       .  A
C2453      H2464   1.082       .  S
C2454      C2455   1.391       .  A
C2454      H2465   1.072       .  S
C2455      C2456   1.419       .  A
C2455      C2460   1.396       .  A
C2456      C2457   1.408       .  A
C2457      C2458   1.391       .  A
C2457      H2466   1.074   1_655  S
C2458      C2459   1.403       .  A
C2458      H2467   1.082   1_655  S
C2459      C2460   1.395       .  A
C2460      H2468   1.085       .  S
C2469      C2470   1.399       .  A
C2469      C2474   1.410       .  A
C2470      C2471   1.400   1_554  A
C2470      H2483   1.083       .  S
C2471      C2472   1.419       .  A
C2471      H2484   1.076       .  S
C2472      C2478   1.430       .  A
C2472      C2473   1.417       .  A
C2473      C2475   1.401       .  A
C2473      C2474   1.402   1_556  A
C2474      H2485   1.084       .  S
C2475      C2476   1.391       .  A
C2475      H2486   1.084       .  S
C2476      C2477   1.395       .  A
C2476      H2487   1.080       .  S
C2477      C2478   1.425       .  A
C2477      C2482   1.412       .  A
C2478      C2479   1.406       .  A
C2479      C2480   1.388       .  A
C2479      H2488   1.074       .  S
C2480      C2481   1.406       .  A
C2480      H2489   1.082       .  S
C2481      C2482   1.401       .  A
C2482      H2490   1.084       .  S
C2491      C2492   1.405       .  A
C2492      C2493   1.419       .  A
C2492      H2505   1.082       .  S
C2493      C2494   1.425       .  A
C2493      H2506   1.079       .  S
C2494      C2500   1.443   1_556  A
C2495      C2497   1.397       .  A
C2495      C2496   1.393       .  A
C2496      H2507   1.084       .  S
C2497      C2498   1.379   1_556  A
C2497      H2508   1.081       .  S
C2498      C2499   1.394       .  A
C2498      H2509   1.084       .  S
C2499      C2504   1.399       .  A
C2500      C2501   1.417       .  A
C2501      C2502   1.413       .  A
C2501      H2510   1.079       .  S
C2502      C2503   1.408       .  A
C2502      H2511   1.082       .  S
C2504      H2512   1.083       .  S
C2513      C2514   1.404       .  A
C2513      C2518   1.404       .  A
C2514      C2515   1.403       .  A
C2514      H2527   1.083       .  S
C2515      C2516   1.414       .  A
C2515      H2528   1.077       .  S
C2516      C2522   1.437       .  A
C2516      C2517   1.423       .  A
C2517      C2519   1.399       .  A
C2517      C2518   1.409       .  A
C2518      H2529   1.084       .  S
C2519      C2520   1.390   1_655  A
C2519      H2530   1.083   1_655  S
C2520      C2521   1.399   1_455  A
C2520      H2531   1.083       .  S
C2521      C2522   1.422       .  A
C2521      C2526   1.406       .  A
C2522      C2523   1.418       .  A
C2523      C2524   1.405       .  A
C2523      H2532   1.078       .  S
C2524      C2525   1.401       .  A
C2524      H2533   1.083       .  S
C2525      C2526   1.404       .  A
C2526      H2534   1.086   1_655  S
C2535      C2536   1.403       .  A
C2535      C2540   1.400       .  A
C2536      C2537   1.402       .  A
C2536      H2549   1.083       .  S
C2537      C2538   1.413       .  A
C2537      H2550   1.078   1_655  S
C2538      C2544   1.434       .  A
C2538      C2539   1.420       .  A
C2539      C2541   1.393       .  A
C2539      C2540   1.406       .  A
C2540      H2551   1.085       .  S
C2541      C2542   1.387       .  A
C2541      H2552   1.073       .  S
C2542      C2543   1.397       .  A
C2542      H2553   1.083       .  S
C2543      C2544   1.423       .  A
C2543      C2548   1.405       .  A
C2544      C2545   1.416       .  A
C2545      C2546   1.402       .  A
C2545      H2554   1.078       .  S
C2546      C2547   1.401       .  A
C2546      H2555   1.083       .  S
C2547      C2548   1.399       .  A
C2548      H2556   1.085       .  S
C2557      C2558   1.401       .  A
C2557      C2562   1.395       .  A
C2558      C2559   1.406       .  A
C2558      H2571   1.083       .  S
C2559      C2560   1.420       .  A
C2559      H2572   1.078       .  S
C2560      C2566   1.433       .  A
C2560      C2561   1.421       .  A
C2561      C2563   1.397       .  A
C2561      C2562   1.395       .  A
C2562      H2573   1.078       .  S
C2563      C2564   1.382       .  A
C2563      H2574   1.084       .  S
C2564      C2565   1.394       .  A
C2564      H2575   1.083       .  S
C2565      C2566   1.425       .  A
C2565      C2570   1.400   1_556  A
C2566      C2567   1.415       .  A
C2567      C2568   1.402   1_556  A
C2567      H2576   1.078       .  S
C2568      C2569   1.402       .  A
C2568      H2577   1.083       .  S
C2569      C2570   1.393       .  A
C2570      H2578   1.085       .  S
C2579      C2580   1.397       .  A
C2579      C2584   1.401       .  A
C2580      C2581   1.395       .  A
C2580      H2593   1.080       .  S
C2581      C2582   1.407       .  A
C2581      H2594   1.075       .  S
C2582      C2588   1.426       .  A
C2582      C2583   1.421       .  A
C2583      C2585   1.399       .  A
C2583      C2584   1.409       .  A
C2584      H2595   1.084       .  S
C2585      C2586   1.393       .  A
C2585      H2596   1.084       .  S
C2586      C2587   1.402       .  A
C2586      H2597   1.084       .  S
C2587      C2588   1.419       .  A
C2587      C2592   1.402       .  A
C2588      C2589   1.417       .  A
C2589      C2590   1.403       .  A
C2589      H2598   1.078       .  S
C2590      C2591   1.402       .  A
C2590      H2599   1.082       .  S
C2591      C2592   1.404       .  A
C2592      H2600   1.085       .  S
C2601      C2602   1.402       .  A
C2601      C2606   1.402       .  A
C2602      C2603   1.399       .  A
C2602      H2615   1.083       .  S
C2603      C2604   1.415       .  A
C2603      H2616   1.077       .  S
C2604      C2610   1.430       .  A
C2604      C2605   1.420       .  A
C2605      C2607   1.399       .  A
C2605      C2606   1.404       .  A
C2606      H2617   1.083       .  S
C2607      C2608   1.387       .  A
C2607      H2618   1.082       .  S
C2608      C2609   1.397       .  A
C2608      H2619   1.084       .  S
C2609      C2610   1.422       .  A
C2609      C2614   1.405       .  A
C2610      C2611   1.412       .  A
C2611      C2612   1.395       .  A
C2611      H2620   1.075       .  S
C2612      C2613   1.403       .  A
C2612      H2621   1.083       .  S
C2613      C2614   1.402       .  A
C2614      H2622   1.084       .  S
C2623      C2624   1.406       .  A
C2623      C2628   1.404       .  A
C2624      C2625   1.394       .  A
C2624      H2637   1.083       .  S
C2625      C2626   1.411   1_554  A
C2625      H2638   1.078   1_554  S
C2626      C2632   1.432       .  A
C2626      C2627   1.424       .  A
C2627      C2629   1.399       .  A
C2627      C2628   1.413   1_556  A
C2628      H2639   1.084       .  S
C2629      C2630   1.391       .  A
C2629      H2640   1.081       .  S
C2630      C2631   1.399       .  A
C2630      H2641   1.084       .  S
C2631      C2632   1.421       .  A
C2631      C2636   1.407       .  A
C2632      C2633   1.416       .  A
C2633      C2634   1.398       .  A
C2633      H2642   1.077       .  S
C2634      C2635   1.398       .  A
C2634      H2643   1.078       .  S
C2635      C2636   1.405       .  A
C2636      H2644   1.084       .  S
C2645      C2650   1.400       .  A
C2646      C2647   1.393       .  A
C2646      H2659   1.081       .  S
C2647      H2660   1.075       .  S
C2648      C2654   1.426       .  A
C2648      C2649   1.423       .  A
C2649      C2651   1.399       .  A
C2649      C2650   1.406       .  A
C2650      H2661   1.085       .  S
C2651      C2652   1.391       .  A
C2651      H2662   1.084       .  S
C2652      C2653   1.400       .  A
C2652      H2663   1.084       .  S
C2653      C2654   1.420       .  A
C2653      C2658   1.403   1_556  A
C2655      C2656   1.395   1_556  A
C2655      H2664   1.077       .  S
C2656      H2665   1.077       .  S
C2657      C2658   1.402       .  A
C2658      H2666   1.085       .  S
C2667      C2668   1.391       .  A
C2667      C2672   1.405       .  A
C2668      C2669   1.398       .  A
C2668      H2681   1.077       .  S
C2669      C2670   1.419       .  A
C2669      H2682   1.078       .  S
C2670      C2676   1.426       .  A
C2670      C2671   1.421       .  A
C2671      C2673   1.402       .  A
C2671      C2672   1.401       .  A
C2672      H2683   1.086       .  S
C2673      C2674   1.391       .  A
C2673      H2684   1.084       .  S
C2674      C2675   1.399       .  A
C2674      H2685   1.084       .  S
C2675      C2676   1.423       .  A
C2675      C2680   1.406       .  A
C2676      C2677   1.411       .  A
C2677      C2678   1.394       .  A
C2677      H2686   1.079       .  S
C2678      C2679   1.400       .  A
C2678      H2687   1.084       .  S
C2679      C2680   1.399       .  A
C2680      H2688   1.085       .  S
