geometry optimzed in LAMMPS
_audit_creation_date              2020-12-01 
_audit_creation_method            'lammps2cif' 
_symmetry_space_group_name_H-M    'P1' 
_symmetry_Int_Tables_number       1 
_symmetry_cell_setting            triclinic 
loop_ 
_symmetry_equiv_pos_as_xyz 
  x,y,z 
_cell_length_a                    70.23716122 
_cell_length_b                    70.26255587925239 
_cell_length_c                    70.2735206925743 
_cell_angle_alpha                 89.80730055624252 
_cell_angle_beta                  89.80121216325561 
_cell_angle_gamma                 89.93346199357826 
loop_ 
_atom_site_label 
_atom_site_type_symbol 
_atom_site_fract_x 
_atom_site_fract_y 
_atom_site_fract_z 
_atom_site_charge 
N1          N  0.78960813  0.21211437  0.00980987    -0.01400
C2          C  0.79340171  0.19959056  0.02406290     0.01200
C3          C  0.80775671  0.18726847  0.01875058    -0.21700
C4          C  0.81302245  0.19228281  0.00055336    -0.21900
C5          C  0.80172622  0.20751727  0.99542657     0.01100
H6          H  0.81371168  0.17580891  0.02717946     0.14800
H7          H  0.82383273  0.18545119  0.99193378     0.14900
N8          N  0.77608622  0.22710728  0.01006149    -0.01400
C9          C  0.77347453  0.24017530  0.02404190     0.01200
C10         C  0.75922517  0.25277596  0.01910408    -0.21700
C11         C  0.75279125  0.24733812  0.00146303    -0.21900
C12         C  0.76331034  0.23158220  0.99626454     0.01100
H13         H  0.75409437  0.26468473  0.02740922     0.14800
H14         H  0.74171508  0.25422165  0.99326160     0.14900
N15         N  0.80359743  0.97015481  0.25995230    -0.01400
C16         C  0.81084264  0.98397696  0.24841897     0.01200
C17         C  0.82839935  0.97856323  0.24144424    -0.21700
C18         C  0.83211251  0.96076699  0.24880104    -0.21900
C19         C  0.81671985  0.95588141  0.26005969     0.01100
H20         H  0.83744689  0.98658978  0.23185162     0.14800
H21         H  0.84460203  0.95217011  0.24598916     0.14900
N22         N  0.78647422  0.97117960  0.27061604    -0.01400
C23         C  0.78034473  0.98623552  0.28110068     0.01200
C24         C  0.76265362  0.98247544  0.28882179    -0.21700
C25         C  0.75770493  0.96445755  0.28298487    -0.21900
C26         C  0.77253025  0.95782012  0.27188013     0.01100
H27         H  0.75432566  0.99174042  0.29789304     0.14800
H28         H  0.74476617  0.95691508  0.28665321     0.14900
O29         O  0.79647965  0.29885238  0.30804667    -0.70900
O30         O  0.80455531  0.24216449  0.30837517    -0.71900
O31         O  0.80248259  0.27061679  0.27983175    -0.60500
O32         O  0.79844286  0.26985916  0.33708807    -0.68900
O33         O  0.76718961  0.26562051  0.33508372    -0.68500
O34         O  0.77123044  0.26644259  0.27775646    -0.59700
O35         O  0.77331884  0.23777204  0.30647915    -0.72200
O36         O  0.76521484  0.29469743  0.30597029    -0.71000
Cu37       Cu  0.80154507  0.27059460  0.30847391     1.04600
Cu38       Cu  0.76812110  0.26603314  0.30630018     1.04300
C39         C  0.77970378  0.30567464  0.30637389     0.95300
C40         C  0.79022669  0.23104691  0.30737905     0.94400
C41         C  0.78749963  0.26848898  0.26979634     0.86600
C42         C  0.78229792  0.26705631  0.34505452     0.92900
O43         O  0.80544274  0.26812791  0.24100523    -0.70900
O44         O  0.80978137  0.26747531  0.18379635    -0.71900
O45         O  0.80784486  0.29653503  0.21237582    -0.60500
O46         O  0.80733645  0.23915286  0.21260585    -0.68900
O47         O  0.77579835  0.23939724  0.21060369    -0.68500
O48         O  0.77629618  0.29671525  0.21021028    -0.59700
O49         O  0.77823193  0.26764973  0.18167183    -0.72200
O50         O  0.77391353  0.26822708  0.23882715    -0.71000
Cu51       Cu  0.80871144  0.26784111  0.21248968     1.04600
Cu52       Cu  0.77497007  0.26804925  0.21019804     1.04300
C53         C  0.78901972  0.26829418  0.24891063     0.95300
C54         C  0.79463972  0.26707201  0.17379635     0.94400
C55         C  0.79208143  0.30558459  0.21169058     0.86600
C56         C  0.79149621  0.23024965  0.21168273     0.92900
O57         O  0.77267752  0.17171395  0.18518704    -0.70900
O58         O  0.77776422  0.17178762  0.24202317    -0.71900
O59         O  0.77551753  0.20037882  0.21326783    -0.60500
O60         O  0.77520443  0.14289110  0.21408674    -0.68900
O61         O  0.80669927  0.14275368  0.21118433    -0.68500
O62         O  0.80702206  0.20015340  0.21059087    -0.59700
O63         O  0.80927404  0.17170530  0.23927352    -0.72200
O64         O  0.80417858  0.17163924  0.18216684    -0.71000
Cu65       Cu  0.77420119  0.17165915  0.21370832     1.04600
Cu66       Cu  0.80790242  0.17150064  0.21065627     1.04300
C67         C  0.78758502  0.17212934  0.17477539     0.95300
C68         C  0.79425901  0.17184310  0.24960825     0.94400
C69         C  0.79133153  0.20929338  0.21185663     0.86600
C70         C  0.79096626  0.13383245  0.21314396     0.92900
O71         O  0.78713313  0.14258928  0.30953992    -0.70900
O72         O  0.77893636  0.19921280  0.30864825    -0.71900
O73         O  0.78097652  0.17025509  0.28069845    -0.60500
O74         O  0.78538604  0.17203170  0.33773760    -0.68900
O75         O  0.81663209  0.17621574  0.33499958    -0.68500
O76         O  0.81221082  0.17445881  0.27806196    -0.59700
O77         O  0.81014955  0.20361924  0.30616989    -0.72200
O78         O  0.81837821  0.14668528  0.30681500    -0.71000
Cu79       Cu  0.78203773  0.17080510  0.30928396     1.04600
Cu80       Cu  0.81545137  0.17535606  0.30644491     1.04300
C81         C  0.80389640  0.13572680  0.30790135     0.95300
C82         C  0.79324801  0.21033689  0.30736352     0.94400
C83         C  0.79590546  0.17216772  0.27041780     0.86600
C84         C  0.80165520  0.17494993  0.34525221     0.92900
N85         N  0.79990093  0.22863644  0.51071017    -0.01400
C86         C  0.81186595  0.23376479  0.52491993     0.01200
C87         C  0.82111898  0.25047263  0.52032387    -0.21700
C88         C  0.81473697  0.25580107  0.50257115    -0.21900
C89         C  0.80179422  0.24217125  0.49694060     0.01100
H90         H  0.83159542  0.25783938  0.52881743     0.14800
H91         H  0.81930865  0.26813063  0.49449553     0.14900
N92         N  0.78836825  0.21212208  0.51026955    -0.01400
C93         C  0.78747703  0.19906493  0.49611552     0.01200
C94         C  0.77570306  0.18420730  0.50127874    -0.21700
C95         C  0.76911544  0.18815883  0.51929638    -0.21900
C96         C  0.77707657  0.20530527  0.52449815     0.01100
H97         H  0.77223874  0.17183755  0.49283337     0.14800
H98         H  0.75953623  0.17945085  0.52770229     0.14900
O99         O  0.80911020  0.76588474  0.28110106    -0.70900
O100        O  0.86612101  0.76249102  0.28739628    -0.71900
O101        O  0.83824317  0.79287558  0.28841849    -0.60500
O102        O  0.83680841  0.73601645  0.27996763    -0.68900
O103        O  0.84033220  0.74054812  0.24887123    -0.68500
O104        O  0.84204495  0.79723216  0.25732761    -0.59700
O105        O  0.86985698  0.76686595  0.25629267    -0.72200
O106        O  0.81294667  0.77020891  0.25001309    -0.71000
Cu107      Cu  0.83748086  0.76422567  0.28532960     1.04600
Cu108      Cu  0.84148273  0.76896211  0.25207792     1.04300
C109        C  0.80207376  0.76838849  0.26452489     0.95300
C110        C  0.87685306  0.76339389  0.27270634     0.94400
C111        C  0.83979434  0.80397896  0.27405039     0.86600
C112        C  0.83839655  0.72936429  0.26311127     0.92900
O113        O  0.74193226  0.79814788  0.27099027    -0.70900
O114        O  0.74200609  0.74108500  0.27444607    -0.71900
O115        O  0.77027235  0.76971219  0.27647366    -0.60500
O116        O  0.71328293  0.76879907  0.26866001    -0.68900
O117        O  0.71771531  0.76719372  0.23739663    -0.68500
O118        O  0.77442199  0.76806809  0.24518593    -0.59700
O119        O  0.74602621  0.73915164  0.24314967    -0.72200
O120        O  0.74630066  0.79652969  0.23971846    -0.71000
Cu121      Cu  0.74166211  0.76958244  0.27372104     1.04600
Cu122      Cu  0.74623190  0.76774265  0.24026460     1.04300
C123        C  0.74467943  0.80630062  0.25494801     0.95300
C124        C  0.74397006  0.73114181  0.25939407     0.94400
C125        C  0.78129280  0.76883272  0.26197826     0.86600
C126        C  0.70662836  0.76716179  0.25182772     0.92900
O127        O  0.83966097  0.69748436  0.27440200    -0.70900
O128        O  0.83921002  0.64079804  0.26647707    -0.71900
O129        O  0.86824872  0.66975652  0.26723077    -0.60500
O130        O  0.81114977  0.66905145  0.27343913    -0.68900
O131        O  0.80807733  0.67326595  0.24226475    -0.68500
O132        O  0.86499898  0.67402352  0.23607674    -0.59700
O133        O  0.83599920  0.64502510  0.23531647    -0.72200
O134        O  0.83673208  0.70197225  0.24325834    -0.71000
Cu135      Cu  0.83975324  0.66905182  0.27144997     1.04600
Cu136      Cu  0.83638609  0.67368308  0.23812542     1.04300
C137        C  0.83820432  0.70865270  0.26010447     0.95300
C138        C  0.83690454  0.63401703  0.24980410     0.94400
C139        C  0.87554594  0.67252666  0.25076421     0.86600
C140        C  0.80065545  0.67116602  0.25876372     0.92900
O141        O  0.74216790  0.70019426  0.24591721    -0.70900
O142        O  0.74034725  0.64312558  0.25094157    -0.71900
O143        O  0.71261209  0.67323181  0.25083488    -0.60500
O144        O  0.76950499  0.67060345  0.24590975    -0.68900
O145        O  0.77226586  0.67276743  0.27730276    -0.68500
O146        O  0.71509305  0.67565235  0.28224428    -0.59700
O147        O  0.74290369  0.64557513  0.28234479    -0.72200
O148        O  0.74463427  0.70250496  0.27732713    -0.71000
Cu149      Cu  0.74101268  0.67162041  0.24731904     1.04600
Cu150      Cu  0.74378873  0.67415399  0.28091565     1.04300
C151        C  0.74365047  0.71031220  0.26090921     0.95300
C152        C  0.74181931  0.63542095  0.26736653     0.94400
C153        C  0.70496215  0.67548712  0.26718224     0.86600
C154        C  0.77984858  0.67143692  0.26079139     0.92900
N155        N  0.79085361  0.47027643  0.26231855    -0.01400
C156        C  0.80384560  0.48412700  0.26597608     0.01200
C157        C  0.81587732  0.47844575  0.28039594    -0.21700
C158        C  0.81016335  0.46050627  0.28585306    -0.21900
C159        C  0.79481641  0.45582204  0.27460209     0.01100
H160        H  0.82756312  0.48648671  0.28632777     0.14800
H161        H  0.81654252  0.45179869  0.29685802     0.14900
N162        N  0.77610807  0.47093934  0.24863038    -0.01400
C163        C  0.76382973  0.48553239  0.24553497     0.01200
C164        C  0.75184131  0.48136986  0.23060728    -0.21700
C165        C  0.75684244  0.46351149  0.22429126    -0.21900
C166        C  0.77172304  0.45744094  0.23557712     0.01100
H167        H  0.74056545  0.49027217  0.22502483     0.14800
H168        H  0.75018652  0.45571408  0.21284706     0.14900
N169        N  0.04142181  0.72201386  0.25598534    -0.01400
C170        C  0.02717117  0.73502064  0.25781568     0.01200
C171        C  0.03219293  0.75186164  0.24897779    -0.21700
C172        C  0.05008741  0.74921542  0.24140599    -0.21900
C173        C  0.05540289  0.73083598  0.24584437     0.01100
H174        H  0.02366032  0.76466314  0.24796802     0.14800
H175        H  0.05828376  0.75955716  0.23340374     0.14900
N176        N  0.04200826  0.70331346  0.26357115    -0.01400
C177        C  0.05673877  0.69514999  0.27310163     0.01200
C178        C  0.05242726  0.67655078  0.27776011    -0.21700
C179        C  0.03440536  0.67310737  0.27091164    -0.21900
C180        C  0.02833874  0.68971065  0.26228120     0.01100
H181        H  0.06136224  0.66658759  0.28540864     0.14800
H182        H  0.02650791  0.65994644  0.27224413     0.14900
N183        N  0.28815768  0.73101461  0.00189207    -0.01400
C184        C  0.27432378  0.73365426  0.01527204     0.01200
C185        C  0.26074001  0.74615936  0.00849237    -0.21700
C186        C  0.26641887  0.75154869  0.99048929    -0.21900
C187        C  0.28328292  0.74215135  0.98686805     0.01100
H188        H  0.24827632  0.75123260  0.01603613     0.14800
H189        H  0.25926960  0.76161464  0.98125819     0.14900
N190        N  0.30453520  0.71929253  0.00309270    -0.01400
C191        C  0.31123650  0.70714837  0.98958682     0.01200
C192        C  0.32836823  0.69936913  0.99522800    -0.21700
C193        C  0.33246175  0.70700431  0.01274225    -0.21900
C194        C  0.31770583  0.71920982  0.01715026     0.01100
H195        H  0.33703076  0.68931680  0.98738947     0.14800
H196        H  0.34487038  0.70397368  0.02133267     0.14900
O197        O  0.36788015  0.69992473  0.29748894    -0.70900
O198        O  0.31067300  0.70437986  0.29872195    -0.71900
O199        O  0.33914150  0.70531226  0.26975135    -0.60500
O200        O  0.33906500  0.69891378  0.32669586    -0.68900
O201        O  0.34127948  0.73026758  0.33003219    -0.68500
O202        O  0.34123962  0.73664780  0.27320812    -0.59700
O203        O  0.31280339  0.73572122  0.30200449    -0.72200
O204        O  0.37009567  0.73126500  0.30084810    -0.71000
Cu205      Cu  0.33915442  0.70102757  0.29808504     1.04600
Cu206      Cu  0.34150981  0.73455535  0.30168915     1.04300
C207        C  0.37793986  0.71501943  0.29848541     0.95300
C208        C  0.30273108  0.72066532  0.30054436     0.94400
C209        C  0.34009965  0.72200764  0.26254487     0.86600
C210        C  0.33959379  0.71365342  0.33726030     0.92900
O211        O  0.24454394  0.70825527  0.33109746    -0.70900
O212        O  0.24305020  0.70728607  0.27346235    -0.71900
O213        O  0.27212184  0.70653924  0.30147319    -0.60500
O214        O  0.21504017  0.70848781  0.30273691    -0.68900
O215        O  0.21575380  0.74008006  0.30201299    -0.68500
O216        O  0.27345984  0.73810321  0.30109237    -0.59700
O217        O  0.24408223  0.73885705  0.27305422    -0.72200
O218        O  0.24539977  0.73983713  0.33034343    -0.71000
Cu219      Cu  0.24360215  0.70655888  0.30226895     1.04600
Cu220      Cu  0.24466706  0.74033291  0.30164651     1.04300
C221        C  0.24567424  0.72423214  0.33970042     0.95300
C222        C  0.24340731  0.72300892  0.26422098     0.94400
C223        C  0.28180852  0.72189531  0.30105112     0.86600
C224        C  0.20640663  0.72446319  0.30206629     0.92900
O225        O  0.21513857  0.70563870  0.20602920    -0.70900
O226        O  0.27243714  0.70942740  0.20515733    -0.71900
O227        O  0.24398717  0.70726772  0.23418182    -0.60500
O228        O  0.24391536  0.70768557  0.17665907    -0.68900
O229        O  0.24197385  0.73922451  0.17667815    -0.68500
O230        O  0.24202604  0.73879953  0.23421853    -0.59700
O231        O  0.27041573  0.74096037  0.20537638    -0.72200
O232        O  0.21313125  0.73718493  0.20606637    -0.71000
Cu233      Cu  0.24388946  0.70640861  0.20544528     1.04600
Cu234      Cu  0.24174890  0.74013719  0.20552963     1.04300
C235        C  0.20518080  0.72084769  0.20675247     0.95300
C236        C  0.28043375  0.72576983  0.20523868     0.94400
C237        C  0.24310172  0.72299544  0.24323950     0.86600
C238        C  0.24350218  0.72351573  0.16765873     0.92900
O239        O  0.36690603  0.74648512  0.20613924    -0.70900
O240        O  0.30946381  0.74324792  0.20692553    -0.71900
O241        O  0.33882496  0.74125765  0.23480415    -0.60500
O242        O  0.33736813  0.74872989  0.17821372    -0.68900
O243        O  0.33896238  0.71740026  0.17423077    -0.68500
O244        O  0.34038013  0.70992898  0.23097135    -0.59700
O245        O  0.31124980  0.71193644  0.20313208    -0.72200
O246        O  0.36838738  0.71516090  0.20219536    -0.71000
Cu247      Cu  0.33811044  0.74603533  0.20664575     1.04600
Cu248      Cu  0.33984998  0.71252349  0.20245938     1.04300
C249        C  0.37661772  0.73120186  0.20432371     0.95300
C250        C  0.30134751  0.72706445  0.20511244     0.94400
C251        C  0.33977860  0.72448630  0.24181085     0.86600
C252        C  0.33756302  0.73420167  0.16737983     0.92900
N253        N  0.54073449  0.72974525  0.24950687    -0.01400
C254        C  0.55435723  0.74348667  0.24897940     0.01200
C255        C  0.54800968  0.75958330  0.25826426    -0.21700
C256        C  0.52991177  0.75568383  0.26476198    -0.21900
C257        C  0.52582160  0.73731962  0.25926415     0.01100
H258        H  0.55590433  0.77259336  0.26055250     0.14800
H259        H  0.52088622  0.76509010  0.27298340     0.14900
N260        N  0.54112850  0.71183793  0.24030881    -0.01400
C261        C  0.55514867  0.69853157  0.24096644     0.01200
C262        C  0.55023379  0.68293556  0.23014279    -0.21700
C263        C  0.53255613  0.68672154  0.22256592    -0.21900
C264        C  0.52732684  0.70451643  0.22899249     0.01100
H265        H  0.55862817  0.67020046  0.22792280     0.14800
H266        H  0.52441336  0.67748470  0.21337637     0.14900
O267        O  0.33470726  0.79335915  0.80029587    -0.70900
O268        O  0.33139708  0.73612073  0.80154165    -0.71900
O269        O  0.33123452  0.76436995  0.77242902    -0.60500
O270        O  0.33486568  0.76498671  0.82966514    -0.68900
O271        O  0.30332792  0.76682920  0.83150440    -0.68500
O272        O  0.29972315  0.76611159  0.77458463    -0.59700
O273        O  0.29988835  0.73812743  0.80347295    -0.72200
O274        O  0.30316422  0.79504448  0.80229142    -0.71000
Cu275      Cu  0.33419165  0.76466824  0.80094415     1.04600
Cu276      Cu  0.30045669  0.76662587  0.80307765     1.04300
C277        C  0.31936662  0.80312074  0.80080759     0.95300
C278        C  0.31506555  0.72814990  0.80252919     0.94400
C279        C  0.31486954  0.76505542  0.76454161     0.86600
C280        C  0.31957148  0.76576688  0.83952442     0.92900
O281        O  0.29303959  0.79308923  0.70843494    -0.70900
O282        O  0.29580988  0.73598426  0.70705597    -0.71900
O283        O  0.29690141  0.76416085  0.73603286    -0.60500
O284        O  0.29221407  0.76484922  0.67903447    -0.68900
O285        O  0.32370961  0.76629211  0.67643878    -0.68500
O286        O  0.32840702  0.76530026  0.73349987    -0.59700
O287        O  0.32728833  0.73692445  0.70444950    -0.72200
O288        O  0.32452793  0.79476850  0.70606992    -0.71000
Cu289      Cu  0.29343108  0.76448256  0.70766673     1.04600
Cu290      Cu  0.32711355  0.76590715  0.70494222     1.04300
C291        C  0.30832501  0.80288113  0.70816300     0.95300
C292        C  0.31179567  0.72739422  0.70564766     0.94400
C293        C  0.31334883  0.76476829  0.74372820     0.86600
C294        C  0.30726333  0.76532557  0.66880201     0.92900
O295        O  0.32493591  0.66901165  0.83188353    -0.70900
O296        O  0.32728857  0.66843856  0.77414648    -0.71900
O297        O  0.32864045  0.69712141  0.80286058    -0.60500
O298        O  0.32392318  0.64004680  0.80291766    -0.68900
O299        O  0.29241376  0.64259862  0.80175215    -0.68500
O300        O  0.29712869  0.69957975  0.80199411    -0.59700
O301        O  0.29579736  0.67101953  0.77344355    -0.72200
O302        O  0.29343491  0.67136379  0.83048697    -0.71000
Cu303      Cu  0.32733344  0.66852283  0.80304206     1.04600
Cu304      Cu  0.29363286  0.67120445  0.80191196     1.04300
C305        C  0.30875916  0.67069497  0.84015326     0.95300
C306        C  0.31173614  0.66958112  0.76476204     0.94400
C307        C  0.31357720  0.70731872  0.80247430     0.86600
C308        C  0.30747274  0.63240848  0.80185175     0.92900
O309        O  0.32597266  0.63914572  0.70655146    -0.70900
O310        O  0.32766807  0.69707603  0.70527474    -0.71900
O311        O  0.32755114  0.66853414  0.73455263    -0.60500
O312        O  0.32625174  0.66805580  0.67691208    -0.68900
O313        O  0.29465773  0.66883921  0.67767505    -0.68500
O314        O  0.29596256  0.66935205  0.73495957    -0.59700
O315        O  0.29608601  0.69750331  0.70597058    -0.72200
O316        O  0.29439548  0.64016930  0.70714787    -0.71000
Cu317      Cu  0.32799566  0.66810287  0.70573116     1.04600
Cu318      Cu  0.29422250  0.66894151  0.70641129     1.04300
C319        C  0.30988750  0.63063701  0.70757422     0.95300
C320        C  0.31197056  0.70635487  0.70556735     0.94400
C321        C  0.31184249  0.66914558  0.74379007     0.86600
C322        C  0.31026785  0.66894131  0.66829405     0.92900
N323        N  0.30513828  0.72603081  0.50353036    -0.01400
C324        C  0.31744204  0.72667881  0.48854861     0.01200
C325        C  0.33279466  0.73815319  0.49271923    -0.21700
C326        C  0.32994547  0.74488194  0.51084947    -0.21900
C327        C  0.31293287  0.73731338  0.51712146     0.01100
H328        H  0.34472256  0.74143010  0.48348219     0.14800
H329        H  0.33923730  0.75437033  0.51858479     0.14900
N330        N  0.28797514  0.71549319  0.50506370    -0.01400
C331        C  0.28208595  0.70504166  0.52035140     0.01200
C332        C  0.26411642  0.69783531  0.51722550    -0.21700
C333        C  0.25868673  0.70391517  0.49942742    -0.21900
C334        C  0.27349270  0.71467332  0.49222617     0.01100
H335        H  0.25593790  0.68885230  0.52675051     0.14800
H336        H  0.24546459  0.70053213  0.49233576     0.14900
O337        O  0.80606860  0.19881577  0.80842283    -0.70900
O338        O  0.86291120  0.20380787  0.80859068    -0.71900
O339        O  0.83352681  0.20351424  0.83713836    -0.60500
O340        O  0.83488096  0.19910826  0.78017271    -0.68900
O341        O  0.83222461  0.23053351  0.77774503    -0.68500
O342        O  0.83082447  0.23494414  0.83461643    -0.59700
O343        O  0.86020094  0.23523689  0.80610297    -0.72200
O344        O  0.80327611  0.23023905  0.80603934    -0.71000
Cu345      Cu  0.83451644  0.20021398  0.80871691     1.04600
Cu346      Cu  0.83159821  0.23384607  0.80606887     1.04300
C347        C  0.79574519  0.21374259  0.80729574     0.95300
C348        C  0.87045795  0.22024648  0.80685059     0.94400
C349        C  0.83124214  0.21984218  0.84474551     0.86600
C350        C  0.83368773  0.21416812  0.77001194     0.92900
O351        O  0.73959078  0.19195755  0.83622783    -0.70900
O352        O  0.73918450  0.19332174  0.77883382    -0.71900
O353        O  0.76757207  0.19530693  0.80735777    -0.60500
O354        O  0.71081959  0.18982089  0.80748410    -0.68900
O355        O  0.70775927  0.22130295  0.80811716    -0.68500
O356        O  0.76461777  0.22678929  0.80797889    -0.59700
O357        O  0.73630212  0.22478763  0.77965306    -0.72200
O358        O  0.73655925  0.22343126  0.83681070    -0.71000
Cu359      Cu  0.73934040  0.19148876  0.80749716     1.04600
Cu360      Cu  0.73613434  0.22517148  0.80821335     1.04300
C361        C  0.73862778  0.20756027  0.84546601     0.95300
C362        C  0.73791655  0.20934064  0.77024097     0.94400
C363        C  0.77501718  0.21187496  0.80753729     0.86600
C364        C  0.70040856  0.20471000  0.80739722     0.92900
O365        O  0.83586560  0.19280661  0.68423252    -0.70900
O366        O  0.83410510  0.19638252  0.74133778    -0.71900
O367        O  0.80623520  0.19514689  0.71202660    -0.60500
O368        O  0.86376232  0.19413978  0.71407549    -0.68900
O369        O  0.86423909  0.22568477  0.71204248    -0.68500
O370        O  0.80676087  0.22667680  0.71011096    -0.59700
O371        O  0.83453420  0.22793177  0.73921974    -0.72200
O372        O  0.83634716  0.22436620  0.68226010    -0.71000
Cu373      Cu  0.83498914  0.19350312  0.71291164     1.04600
Cu374      Cu  0.83551784  0.22724915  0.71075106     1.04300
C375        C  0.83612310  0.20805818  0.67430100     0.95300
C376        C  0.83410054  0.21273762  0.74922981     0.94400
C377        C  0.79743911  0.21107968  0.71108143     0.86600
C378        C  0.87295596  0.20982707  0.71399886     0.92900
O379        O  0.73895080  0.22951970  0.68390582    -0.70900
O380        O  0.73870991  0.22634875  0.74102691    -0.71900
O381        O  0.76757699  0.22738531  0.71216900    -0.60500
O382        O  0.70991489  0.22823389  0.71305757    -0.68900
O383        O  0.70961439  0.19668015  0.71148644    -0.68500
O384        O  0.76712143  0.19583883  0.71081131    -0.59700
O385        O  0.73837534  0.19478477  0.73965273    -0.72200
O386        O  0.73866980  0.19795810  0.68226143    -0.71000
Cu387      Cu  0.73876750  0.22896700  0.71255199     1.04600
Cu388      Cu  0.73838346  0.19521765  0.71093958     1.04300
C389        C  0.73943185  0.21424629  0.67413234     0.95300
C390        C  0.73836520  0.21015323  0.74934067     0.94400
C391        C  0.77640896  0.21146469  0.71131987     0.86600
C392        C  0.70076924  0.21251000  0.71300592     0.92900
N393        N  0.53559890  0.21081664  0.77011028    -0.01400
C394        C  0.52141593  0.22298406  0.77516691     0.01200
C395        C  0.52641535  0.23303494  0.79121730    -0.21700
C396        C  0.54428529  0.22687535  0.79629278    -0.21900
C397        C  0.54952309  0.21325784  0.78318097     0.01100
H398        H  0.51796612  0.24368846  0.79847083     0.14800
H399        H  0.55259309  0.23184501  0.80822853     0.14900
N400        N  0.53515780  0.19711915  0.75538317    -0.01400
C401        C  0.54891914  0.19336703  0.74223910     0.01200
C402        C  0.54305852  0.17889184  0.73037096    -0.21700
C403        C  0.52519924  0.17343963  0.73647089    -0.21900
C404        C  0.52076962  0.18476953  0.75185776     0.01100
H405        H  0.55105565  0.17270510  0.71873525     0.14800
H406        H  0.51655403  0.16219920  0.73053475     0.14900
N407        N  0.28912154  0.96679312  0.77144109    -0.01400
C408        C  0.27725077  0.98058579  0.77817366     0.01200
C409        C  0.27000317  0.97539381  0.79571246    -0.21700
C410        C  0.27767724  0.95789629  0.80004588    -0.21900
C411        C  0.28937357  0.95303508  0.78501670     0.01100
H412        H  0.26034030  0.98356148  0.80452280     0.14800
H413        H  0.27511782  0.94967876  0.81285640     0.14900
N414        N  0.30033138  0.96746115  0.75463297    -0.01400
C415        C  0.30287256  0.95359329  0.74135206     0.01200
C416        C  0.31480804  0.96000798  0.72705393    -0.21700
C417        C  0.31999349  0.97827667  0.73170010    -0.21900
C418        C  0.31103964  0.98238894  0.74867507     0.01100
H419        H  0.31974313  0.95200941  0.71485171     0.14800
H420        H  0.32970744  0.98734060  0.72384828     0.14900
N421        N  0.03615069  0.20469760  0.77436642    -0.01400
C422        C  0.02132180  0.20177737  0.78647400     0.01200
C423        C  0.02473580  0.18619376  0.79796774    -0.21700
C424        C  0.04232365  0.17923310  0.79285957    -0.21900
C425        C  0.04897598  0.19077432  0.77838202     0.01100
H426        H  0.01540400  0.18045024  0.80884488     0.14800
H427        H  0.04954213  0.16713603  0.79913110     0.14900
N428        N  0.03774929  0.21898640  0.76014713    -0.01400
C429        C  0.05318434  0.23010642  0.75642346     0.01200
C430        C  0.04972605  0.24172347  0.74095121    -0.21700
C431        C  0.03155218  0.23775669  0.73491344    -0.21900
C432        C  0.02449347  0.22382323  0.74687380     0.01100
H433        H  0.05934254  0.25209677  0.73479264     0.14800
H434        H  0.02421602  0.24443912  0.72312791     0.14900
O435        O  0.30787506  0.26485696  0.78981897    -0.70900
O436        O  0.36509437  0.26271318  0.78439262    -0.71900
O437        O  0.33668157  0.29226209  0.78270395    -0.60500
O438        O  0.33596206  0.23569462  0.79163248    -0.68900
O439        O  0.33327034  0.23144759  0.76044245    -0.68500
O440        O  0.33382504  0.28769607  0.75156050    -0.59700
O441        O  0.36204083  0.25834652  0.75325181    -0.72200
O442        O  0.30521996  0.26051802  0.75865051    -0.71000
Cu443      Cu  0.33655890  0.26411204  0.78824949     1.04600
Cu444      Cu  0.33351490  0.25937236  0.75491361     1.04300
C445        C  0.29757719  0.26303116  0.77497016     0.95300
C446        C  0.37246166  0.25964911  0.76802155     0.94400
C447        C  0.33484367  0.29880940  0.76582968     0.86600
C448        C  0.33460356  0.22468637  0.77728036     0.92900
O449        O  0.24059474  0.14017939  0.75749787    -0.70900
O450        O  0.24034280  0.19728431  0.76134066    -0.71900
O451        O  0.26887083  0.16837881  0.76210817    -0.60500
O452        O  0.21188522  0.16907492  0.75688394    -0.68900
O453        O  0.20897033  0.16703184  0.78831702    -0.68500
O454        O  0.26599011  0.16654624  0.79354103    -0.59700
O455        O  0.23754319  0.19555434  0.79276447    -0.72200
O456        O  0.23780388  0.13792397  0.78891507    -0.71000
Cu457      Cu  0.24048976  0.16879654  0.75838725     1.04600
Cu458      Cu  0.23741806  0.16665809  0.79200222     1.04300
C459        C  0.23968650  0.13008887  0.77260546     0.95300
C460        C  0.23894973  0.20546284  0.77750853     0.94400
C461        C  0.27639444  0.16728819  0.77861158     0.86600
C462        C  0.20151092  0.16840227  0.77181944     0.92900
O463        O  0.23976606  0.23518737  0.79420098    -0.70900
O464        O  0.24062214  0.29313194  0.79446407    -0.71900
O465        O  0.21127166  0.26389716  0.79604727    -0.60500
O466        O  0.26867662  0.26385799  0.79282073    -0.68900
O467        O  0.26681182  0.26411941  0.76128413    -0.68500
O468        O  0.20968040  0.26426755  0.76448981    -0.59700
O469        O  0.23888699  0.29328577  0.76294109    -0.72200
O470        O  0.23820017  0.23586790  0.76267158    -0.71000
Cu471      Cu  0.24007531  0.26410054  0.79552012     1.04600
Cu472      Cu  0.23826689  0.26448814  0.76179571     1.04300
C473        C  0.23895451  0.22647151  0.77825334     0.95300
C474        C  0.24057609  0.30223644  0.77864603     0.94400
C475        C  0.20153167  0.26325169  0.78073658     0.86600
C476        C  0.27673061  0.26374885  0.77648259     0.92900
O477        O  0.36447475  0.16550623  0.77006914    -0.70900
O478        O  0.30749894  0.16544558  0.76544313    -0.71900
O479        O  0.33598059  0.19353212  0.76511238    -0.60500
O480        O  0.33572817  0.13707296  0.77019274    -0.68900
O481        O  0.33310712  0.13944022  0.80162982    -0.68500
O482        O  0.33361405  0.19665577  0.79648297    -0.59700
O483        O  0.30486219  0.16808526  0.79682926    -0.72200
O484        O  0.36201906  0.16815851  0.80148291    -0.71000
Cu485      Cu  0.33605136  0.16525974  0.76665324     1.04600
Cu486      Cu  0.33333120  0.16815560  0.80025869     1.04300
C487        C  0.37217899  0.16707511  0.78641870     0.95300
C488        C  0.29721269  0.16690335  0.78039485     0.94400
C489        C  0.33473143  0.20401225  0.77984432     0.86600
C490        C  0.33410188  0.12936234  0.78655870     0.92900
N491        N  0.30419637  0.46572412  0.76526235    -0.01400
C492        C  0.31079671  0.48019951  0.77624434     0.01200
C493        C  0.32695054  0.47465925  0.78591283    -0.21700
C494        C  0.33054835  0.45615504  0.78080766    -0.21900
C495        C  0.31649153  0.45105563  0.76816677     0.01100
H496        H  0.33527607  0.48319737  0.79560374     0.14800
H497        H  0.34217083  0.44734416  0.78579913     0.14900
N498        N  0.28823903  0.46597242  0.75290222    -0.01400
C499        C  0.28344521  0.48000119  0.74028314     0.01200
C500        C  0.26740551  0.47486766  0.73027300    -0.21700
C501        C  0.26206378  0.45717097  0.73677244    -0.21900
C502        C  0.27496409  0.45194160  0.75060193     0.01100
H503        H  0.26031495  0.48312929  0.71936337     0.14800
H504        H  0.25001571  0.44895333  0.73188658     0.14900
C505        C  0.26377742  0.39795708  0.76911743     0.19100
C506        C  0.24876822  0.39009935  0.75857956    -0.10100
C507        C  0.24321384  0.37108207  0.76136738    -0.10900
C508        C  0.25258137  0.35956271  0.77474959     0.20600
C509        C  0.26757534  0.36741500  0.78534658    -0.12900
C510        C  0.27313390  0.38647552  0.78255956    -0.11200
C511        C  0.24723045  0.33961664  0.77708779     0.01600
C512        C  0.24343469  0.32274501  0.77830701    -0.31200
C513        C  0.26969648  0.41755978  0.76557342     0.03000
C514        C  0.27340853  0.43372037  0.76046233    -0.32900
H515        H  0.24142058  0.39865746  0.74805396     0.14000
H516        H  0.23170353  0.36531953  0.75294770     0.13900
H517        H  0.27510204  0.35875174  0.79565191     0.13700
H518        H  0.28484789  0.39217715  0.79073380     0.12700
C519        C  0.32073269  0.39530668  0.75697046     0.19100
C520        C  0.30889920  0.38272057  0.74709606    -0.10100
C521        C  0.31218667  0.36306631  0.74818833    -0.10900
C522        C  0.32731305  0.35598660  0.75914079     0.20600
C523        C  0.33910616  0.36860464  0.76895074    -0.12900
C524        C  0.33581795  0.38817735  0.76787919    -0.11200
C525        C  0.33055689  0.33581104  0.76080548     0.01600
C526        C  0.33310461  0.31895890  0.76291297    -0.31200
C527        C  0.31713000  0.41547878  0.75697425     0.03000
C528        C  0.31567893  0.43228549  0.76010272    -0.32900
H529        H  0.29704915  0.38805655  0.73881040     0.14000
H530        H  0.30286979  0.35341445  0.74066268     0.13900
H531        H  0.35074273  0.36330321  0.77756021     0.13700
H532        H  0.34493136  0.39776480  0.77573826     0.12700
C533        C  0.14507500  0.24908823  0.78016436     0.19100
C534        C  0.13096071  0.25628824  0.79235824    -0.10100
C535        C  0.11192317  0.25062734  0.79026697    -0.10900
C536        C  0.10685180  0.23771299  0.77597384     0.20600
C537        C  0.12104018  0.23025485  0.76403589    -0.12900
C538        C  0.14005238  0.23582343  0.76618444    -0.11200
C539        C  0.08704156  0.23338247  0.77234102     0.01600
C540        C  0.07093150  0.23087444  0.76679806    -0.31200
C541        C  0.16460039  0.25556564  0.78153924     0.03000
C542        C  0.18123704  0.26009510  0.78167764    -0.32900
H543        H  0.13460710  0.26652238  0.80324491     0.14000
H544        H  0.10111667  0.25666444  0.79948382     0.13900
H545        H  0.11735237  0.22043015  0.75279003     0.13700
H546        H  0.15077482  0.23007138  0.75668427     0.12700
C547        C  0.10450274  0.18203746  0.76698794     0.19100
C548        C  0.11386838  0.17466535  0.75098072    -0.10100
C549        C  0.13353153  0.17123721  0.75155759    -0.10900
C550        C  0.14387099  0.17515096  0.76813931     0.20600
C551        C  0.13446792  0.18255605  0.78408675    -0.12900
C552        C  0.11487026  0.18593928  0.78352331    -0.11200
C553        C  0.16412816  0.17181545  0.76887075     0.01600
C554        C  0.18115487  0.16973305  0.77006634    -0.31200
C555        C  0.08425418  0.18538659  0.76694677     0.03000
C556        C  0.06760615  0.18829882  0.77011937    -0.32900
H557        H  0.10600436  0.17154517  0.73813438     0.14000
H558        H  0.14065479  0.16554797  0.73911528     0.13900
H559        H  0.14228573  0.18572073  0.79695520     0.13700
H560        H  0.10779006  0.19165175  0.79598664     0.12700
C561        C  0.32826033  0.07234014  0.78134643     0.19100
C562        C  0.32122176  0.05946224  0.79492101    -0.10100
C563        C  0.31788172  0.04049087  0.78987260    -0.10900
C564        C  0.32160699  0.03438884  0.77126260     0.20600
C565        C  0.32870028  0.04726981  0.75775154    -0.12900
C566        C  0.33198974  0.06618346  0.76277023    -0.11200
C567        C  0.31762518  0.01516043  0.76560894     0.01600
C568        C  0.31434719  0.99972565  0.75896730    -0.31200
C569        C  0.33100695  0.09206581  0.78600095     0.03000
C570        C  0.33284958  0.10902858  0.78765779    -0.32900
H571        H  0.31814568  0.06411848  0.80928477     0.14000
H572        H  0.31224881  0.03066288  0.80037916     0.13900
H573        H  0.33147221  0.04273782  0.74328082     0.13700
H574        H  0.33727010  0.07605634  0.75211612     0.12700
C575        C  0.25010738  0.07296652  0.76737678     0.19100
C576        C  0.26750671  0.06795657  0.75885354    -0.10100
C577        C  0.27305467  0.04880394  0.75774252    -0.10900
C578        C  0.26129156  0.03447438  0.76520089     0.20600
C579        C  0.24374026  0.03946808  0.77340122    -0.12900
C580        C  0.23815426  0.05860473  0.77444741    -0.11200
C581        C  0.26774022  0.01488655  0.76597214     0.01600
C582        C  0.27266439  0.99871588  0.76945226    -0.31200
C583        C  0.24491882  0.09282851  0.76943187     0.03000
C584        C  0.24167655  0.10967764  0.77115882    -0.32900
H585        H  0.27693173  0.07887465  0.75334920     0.14000
H586        H  0.28664991  0.04522122  0.75139562     0.13900
H587        H  0.23454971  0.02859203  0.77937110     0.13700
H588        H  0.22469426  0.06221488  0.78109739     0.12700
C589        C  0.43005812  0.17142809  0.78499194     0.19100
C590        C  0.44058838  0.15681195  0.77642709    -0.10100
C591        C  0.45989010  0.15945835  0.77220547    -0.10900
C592        C  0.46883840  0.17670961  0.77658562     0.20600
C593        C  0.45849154  0.19107900  0.78579756    -0.12900
C594        C  0.43912750  0.18848770  0.78990116    -0.11200
C595        C  0.48807906  0.18011182  0.77014640     0.01600
C596        C  0.50347701  0.18263102  0.76283953    -0.31200
C597        C  0.40973577  0.16941144  0.78733516     0.03000
C598        C  0.39259533  0.16802720  0.78769654    -0.32900
H599        H  0.43374312  0.14359864  0.77247636     0.14000
H600        H  0.46769079  0.14826245  0.76501693     0.13900
H601        H  0.46521916  0.20447745  0.78927272     0.13700
H602        H  0.43113332  0.19995724  0.79641391     0.12700
C603        C  0.42920072  0.24758258  0.76273811     0.19100
C604        C  0.44323021  0.25850950  0.77163521    -0.10100
C605        C  0.46233575  0.25292161  0.77076361    -0.10900
C606        C  0.46762024  0.23638035  0.76095339     0.20600
C607        C  0.45364101  0.22555971  0.75179571    -0.12900
C608        C  0.43447764  0.23114344  0.75269745    -0.11200
C609        C  0.48713316  0.22993779  0.76186137     0.01600
C610        C  0.50332146  0.22573073  0.76587392    -0.31200
C611        C  0.40939262  0.25291531  0.76447359     0.03000
C612        C  0.39268977  0.25674918  0.76620661    -0.32900
H613        H  0.43936788  0.27117657  0.77951256     0.14000
H614        H  0.47295872  0.26129689  0.77809391     0.13900
H615        H  0.45747832  0.21259974  0.74439769     0.13700
H616        H  0.42376121  0.22248873  0.74584925     0.12700
C617        C  0.60411223  0.20818244  0.73266756     0.19100
C618        C  0.61150737  0.19887289  0.71661671    -0.10100
C619        C  0.63090530  0.20028213  0.71203859    -0.10900
C620        C  0.64318813  0.21098268  0.72347958     0.20600
C621        C  0.63581190  0.22030016  0.73956103    -0.12900
C622        C  0.61636307  0.21894660  0.74410357    -0.11200
C623        C  0.66334483  0.21205945  0.71890746     0.01600
C624        C  0.68030072  0.21252201  0.71555113    -0.31200
C625        C  0.58414788  0.20595522  0.73757869     0.03000
C626        C  0.56763423  0.20191389  0.74065459    -0.32900
H627        H  0.60228708  0.19039051  0.70769660     0.14000
H628        H  0.63634424  0.19291256  0.69963729     0.13900
H629        H  0.64510354  0.22851873  0.74864663     0.13700
H630        H  0.61093996  0.22611868  0.75662460     0.12700
C631        C  0.96858938  0.21215146  0.73726789     0.19100
C632        C  0.95625849  0.22725824  0.74166240    -0.10100
C633        C  0.93702367  0.22648210  0.73644138    -0.10900
C634        C  0.92992563  0.21063908  0.72666208     0.20600
C635        C  0.94221450  0.19546164  0.72242247    -0.12900
C636        C  0.96145247  0.19621757  0.72769368    -0.11200
C637        C  0.91007670  0.20998034  0.72107240     0.01600
C638        C  0.89329903  0.20972688  0.71708211    -0.31200
C639        C  0.98864662  0.21348063  0.74185361     0.03000
C640        C  0.00532444  0.21652980  0.74497278    -0.32900
H641        H  0.96153929  0.23968630  0.74904011     0.14000
H642        H  0.92772232  0.23828546  0.73992812     0.13900
H643        H  0.93695626  0.18309237  0.71493996     0.13700
H644        H  0.97079104  0.18447128  0.72412725     0.12700
C645        C  0.64318860  0.20031320  0.79914087     0.19100
C646        C  0.63064422  0.21260857  0.80854510    -0.10100
C647        C  0.61122572  0.21216431  0.80440323    -0.10900
C648        C  0.60419459  0.19941464  0.79085088     0.20600
C649        C  0.61669692  0.18703385  0.78144991    -0.12900
C650        C  0.63618983  0.18749381  0.78559133    -0.11200
C651        C  0.58428609  0.20006363  0.78617172     0.01600
C652        C  0.56778137  0.20402842  0.78369891    -0.31200
C653        C  0.66327098  0.20134132  0.80301528     0.03000
C654        C  0.68015560  0.20276754  0.80569338    -0.32900
H655        H  0.63589771  0.22266591  0.81893026     0.14000
H656        H  0.60170236  0.22193754  0.81161190     0.13900
H657        H  0.61144685  0.17729911  0.77076519     0.13700
H658        H  0.64580640  0.17803289  0.77810819     0.12700
C659        C  0.96715562  0.21964579  0.79117426     0.19100
C660        C  0.95516513  0.20488646  0.78527290    -0.10100
C661        C  0.93556241  0.20599593  0.78850639    -0.10900
C662        C  0.92779844  0.22182493  0.79779250     0.20600
C663        C  0.93971520  0.23679181  0.80337450    -0.12900
C664        C  0.95937954  0.23570076  0.80008179    -0.11200
C665        C  0.90769244  0.22234039  0.80193367     0.01600
C666        C  0.89076121  0.22178456  0.80486796    -0.31200
C667        C  0.98743802  0.21745259  0.78900723     0.03000
C668        C  0.00375598  0.21231151  0.78737950    -0.32900
H669        H  0.96101775  0.19238524  0.77839911     0.14000
H670        H  0.92650559  0.19437482  0.78404391     0.13900
H671        H  0.93385731  0.24912616  0.81052391     0.13700
H672        H  0.96851478  0.24715778  0.80478123     0.12700
C673        C  0.30032687  0.53434507  0.72812740     0.19100
C674        C  0.31488287  0.53989139  0.71553839    -0.10100
C675        C  0.31727957  0.55917088  0.71061713    -0.10900
C676        C  0.30516716  0.57315231  0.71823668     0.20600
C677        C  0.29061968  0.56757588  0.73081184    -0.12900
C678        C  0.28816047  0.54832411  0.73563488    -0.11200
C679        C  0.30761323  0.59317022  0.71332569     0.01600
C680        C  0.30907582  0.61011272  0.71001939    -0.31200
C681        C  0.29739219  0.51440104  0.73302354     0.03000
C682        C  0.29283520  0.49816711  0.73698915    -0.32900
H683        H  0.32433759  0.52932281  0.70947411     0.14000
H684        H  0.32858209  0.56316312  0.70087291     0.13900
H685        H  0.28114586  0.57811847  0.73689935     0.13700
H686        H  0.27680573  0.54434845  0.74533152     0.12700
C687        C  0.30231390  0.68971733  0.57239070     0.19100
C688        C  0.29322834  0.67347153  0.57971046    -0.10100
C689        C  0.29569653  0.66813503  0.59879675    -0.10900
C690        C  0.30723199  0.67902693  0.61082518     0.20600
C691        C  0.31654374  0.69513006  0.60344289    -0.12900
C692        C  0.31416394  0.70040013  0.58430702    -0.11200
C693        C  0.30889778  0.67415313  0.63084515     0.01600
C694        C  0.30978660  0.67097611  0.64779950    -0.31200
C695        C  0.29835810  0.69594823  0.55309743     0.03000
C696        C  0.29266278  0.70069298  0.53751401    -0.32900
H697        H  0.28393848  0.66511204  0.57074458     0.14000
H698        H  0.28834053  0.65570842  0.60424934     0.13900
H699        H  0.32542571  0.70377631  0.61254482     0.13700
H700        H  0.32124980  0.71300940  0.57893070     0.12700
C701        C  0.30089149  0.53617314  0.78431246     0.19100
C702        C  0.31388516  0.54780489  0.77453189    -0.10100
C703        C  0.31494085  0.56726088  0.77857262    -0.10900
C704        C  0.30322103  0.57519315  0.79265318     0.20600
C705        C  0.29024212  0.56357432  0.80246415    -0.12900
C706        C  0.28907741  0.54411973  0.79830257    -0.11200
C707        C  0.30458878  0.59520894  0.79700903     0.01600
C708        C  0.30589816  0.61209164  0.79993299    -0.31200
C709        C  0.30065764  0.51595704  0.78073525     0.03000
C710        C  0.30315404  0.49915683  0.77807355    -0.32900
H711        H  0.32326045  0.54181462  0.76383482     0.14000
H712        H  0.32499951  0.57607256  0.77083671     0.13900
H713        H  0.28111552  0.56952492  0.81339067     0.13700
H714        H  0.27914931  0.53525443  0.80613745     0.12700
C715        C  0.29672696  0.89744067  0.73299805     0.19100
C716        C  0.29058202  0.88240183  0.74466448    -0.10100
C717        C  0.29331247  0.86345910  0.73890747    -0.10900
C718        C  0.30217850  0.85937602  0.72142544     0.20600
C719        C  0.30823288  0.87443119  0.70976424    -0.12900
C720        C  0.30555078  0.89332651  0.71553232    -0.11200
C721        C  0.30510769  0.83980453  0.71551544     0.01600
C722        C  0.30712485  0.82319418  0.71128927    -0.31200
C723        C  0.29497577  0.91710745  0.73898822     0.03000
C724        C  0.29637377  0.93405396  0.74185572    -0.32900
H725        H  0.28384974  0.88529138  0.75823840     0.14000
H726        H  0.28858987  0.85200241  0.74813003     0.13900
H727        H  0.31512461  0.87157266  0.69625660     0.13700
H728        H  0.31051936  0.90476501  0.70641097     0.12700
C729        C  0.30154701  0.75077511  0.57198839     0.19100
C730        C  0.28911648  0.74146633  0.58457472    -0.10100
C731        C  0.28987227  0.74530611  0.60411870    -0.10900
C732        C  0.30299416  0.75854410  0.61118478     0.20600
C733        C  0.31521534  0.76804673  0.59854900    -0.12900
C734        C  0.31450947  0.76415679  0.57904138    -0.11200
C735        C  0.30433353  0.76193351  0.63140682     0.01600
C736        C  0.30567320  0.76408985  0.64841284    -0.31200
C737        C  0.30213542  0.74572634  0.55209379     0.03000
C738        C  0.30523914  0.74153592  0.53570788    -0.32900
H739        H  0.27919129  0.73092805  0.57935373     0.14000
H740        H  0.28042685  0.73775877  0.61373804     0.13900
H741        H  0.32547782  0.77824075  0.60380303     0.13700
H742        H  0.32431916  0.77132986  0.56949479     0.12700
C743        C  0.31017360  0.89973942  0.78934655     0.19100
C744        C  0.32619716  0.89105695  0.78119075    -0.10100
C745        C  0.32943039  0.87155741  0.78397392    -0.10900
C746        C  0.31664447  0.86072872  0.79490621     0.20600
C747        C  0.30068319  0.86947456  0.80306658    -0.12900
C748        C  0.29747144  0.88889970  0.80030753    -0.11200
C749        C  0.31936717  0.84054365  0.79733544     0.01600
C750        C  0.32015301  0.82348969  0.79924365    -0.31200
C751        C  0.30610701  0.91956677  0.78615874     0.03000
C752        C  0.29998674  0.93553098  0.78461413    -0.32900
H753        H  0.33602295  0.89927744  0.77256228     0.14000
H754        H  0.34175178  0.86490801  0.77747752     0.13900
H755        H  0.29063037  0.86123982  0.81142376     0.13700
H756        H  0.28496082  0.89544058  0.80656569     0.12700
C757        C  0.47341969  0.72179455  0.21648620     0.19100
C758        C  0.46635092  0.74039259  0.21469892    -0.10100
C759        C  0.44688608  0.74347534  0.21139550    -0.10900
C760        C  0.43439276  0.72797624  0.20991698     0.20600
C761        C  0.44151738  0.70942033  0.21167219    -0.12900
C762        C  0.46092315  0.70634973  0.21488058    -0.11200
C763        C  0.41421479  0.73086975  0.20703527     0.01600
C764        C  0.39710913  0.73181642  0.20528117    -0.31200
C765        C  0.49331287  0.71829051  0.22039157     0.03000
C766        C  0.50936028  0.71334030  0.22419157    -0.32900
H767        H  0.47583030  0.75246671  0.21596882     0.14000
H768        H  0.44157368  0.75790302  0.21013582     0.13900
H769        H  0.43204322  0.69731090  0.21066507     0.13700
H770        H  0.46615983  0.69190530  0.21631585     0.12700
C771        C  0.25610739  0.72544075  0.39714627     0.19100
C772        C  0.25412507  0.74212356  0.40793764    -0.10100
C773        C  0.25889228  0.74217924  0.42734410    -0.10900
C774        C  0.26571246  0.72555838  0.43611850     0.20600
C775        C  0.26771857  0.70892678  0.42529395    -0.12900
C776        C  0.26301022  0.70888418  0.40593234    -0.11200
C777        C  0.27020987  0.72514193  0.45625143     0.01600
C778        C  0.27304550  0.72220844  0.47302066    -0.31200
C779        C  0.25131496  0.72524005  0.37707073     0.03000
C780        C  0.24805969  0.72471526  0.36013890    -0.32900
H781        H  0.24887292  0.75506291  0.40136960     0.14000
H782        H  0.25719050  0.75513062  0.43549493     0.13900
H783        H  0.27296061  0.69596516  0.43183407     0.13700
H784        H  0.26472977  0.69590886  0.39781791     0.12700
C785        C  0.31967775  0.71188149  0.43328921     0.19100
C786        C  0.31247145  0.72576864  0.42087303    -0.10100
C787        C  0.31680043  0.72512151  0.40144066    -0.10900
C788        C  0.32869198  0.71077815  0.39428914     0.20600
C789        C  0.33583125  0.69680599  0.40665616    -0.12900
C790        C  0.33132776  0.69734859  0.42610051    -0.11200
C791        C  0.33380185  0.71076375  0.37436283     0.01600
C792        C  0.33728434  0.71165550  0.35752843    -0.31200
C793        C  0.31653447  0.71368898  0.45352699     0.03000
C794        C  0.31547119  0.71780968  0.47018431    -0.32900
H795        H  0.30379637  0.73732165  0.42626667     0.14000
H796        H  0.31117697  0.73601487  0.39206369     0.13900
H797        H  0.34507426  0.68566489  0.40132386     0.13700
H798        H  0.33725322  0.68670353  0.43556760     0.12700
C799        C  0.47353111  0.71907848  0.27642791     0.19100
C800        C  0.46164563  0.70629081  0.26685648    -0.10100
C801        C  0.44255435  0.70420522  0.27243044    -0.10900
C802        C  0.43524048  0.71482346  0.28769564     0.20600
C803        C  0.44725528  0.72730327  0.29748881    -0.12900
C804        C  0.46628650  0.72943817  0.29186895    -0.11200
C805        C  0.41524445  0.71375508  0.29267529     0.01600
C806        C  0.39832756  0.71387306  0.29606342    -0.31200
C807        C  0.49275068  0.72260116  0.26984414     0.03000
C808        C  0.50834510  0.72780891  0.26463864    -0.32900
H809        H  0.46703794  0.69819110  0.25491359     0.14000
H810        H  0.43343500  0.69457775  0.26464196     0.13900
H811        H  0.44181209  0.73567918  0.30923120     0.13700
H812        H  0.47525678  0.73945608  0.29933800     0.12700
C813        C  0.32034645  0.73682999  0.07129785     0.19100
C814        C  0.33115920  0.75179455  0.07875546    -0.10100
C815        C  0.33494278  0.75246588  0.09831365    -0.10900
C816        C  0.32792489  0.73817035  0.11041529     0.20600
C817        C  0.31682433  0.72345664  0.10296185    -0.12900
C818        C  0.31316939  0.72272310  0.08347288    -0.11200
C819        C  0.33244174  0.73807901  0.13038492     0.01600
C820        C  0.33545794  0.73672876  0.14722068    -0.31200
C821        C  0.31797956  0.73466667  0.05109134     0.03000
C822        C  0.31688071  0.72946844  0.03480275    -0.32900
H823        H  0.33700866  0.76263789  0.06943884     0.14000
H824        H  0.34357513  0.76389828  0.10392973     0.13900
H825        H  0.31131940  0.71233061  0.11216156     0.13700
H826        H  0.30506371  0.71091752  0.07783749     0.12700
C827        C  0.29923677  0.69118549  0.93574789     0.19100
C828        C  0.30889929  0.67441641  0.93077935    -0.10100
C829        C  0.31067804  0.66909817  0.91164533    -0.10900
C830        C  0.30288603  0.68055377  0.89727121     0.20600
C831        C  0.29284683  0.69710237  0.90226264    -0.12900
C832        C  0.29097750  0.70236415  0.92141587    -0.11200
C833        C  0.30562975  0.67571203  0.87742243     0.01600
C834        C  0.30761086  0.67264765  0.86057658    -0.31200
C835        C  0.29949845  0.69767464  0.95528133     0.03000
C836        C  0.30274911  0.70267526  0.97141638    -0.32900
H837        H  0.31548700  0.66569611  0.94167157     0.14000
H838        H  0.31846336  0.65628001  0.90804825     0.13900
H839        H  0.28677292  0.70613459  0.89132637     0.13700
H840        H  0.28360955  0.71543235  0.92498889     0.12700
C841        C  0.25429677  0.72356663  0.11014918     0.19100
C842        C  0.25184550  0.70715497  0.09907259    -0.10100
C843        C  0.25730540  0.70704565  0.07981293    -0.10900
C844        C  0.26530948  0.72334222  0.07142454     0.20600
C845        C  0.26772145  0.73974763  0.08250482    -0.12900
C846        C  0.26230569  0.73984602  0.10174103    -0.11200
C847        C  0.27043136  0.72366921  0.05137259     0.01600
C848        C  0.27358820  0.72632208  0.03457873    -0.31200
C849        C  0.24908838  0.72360501  0.13018933     0.03000
C850        C  0.24570910  0.72365263  0.14714778    -0.32900
H851        H  0.24574274  0.69442883  0.10532749     0.14000
H852        H  0.25522199  0.69428976  0.07146776     0.13900
H853        H  0.27382245  0.75248600  0.07626458     0.13700
H854        H  0.26440022  0.75261903  0.11006207     0.12700
C855        C  0.30813109  0.75338649  0.93564157     0.19100
C856        C  0.31929955  0.74044076  0.92535085    -0.10100
C857        C  0.32358209  0.74394643  0.90617321    -0.10900
C858        C  0.31690828  0.76053036  0.89724343     0.20600
C859        C  0.30630139  0.77378048  0.90772734    -0.12900
C860        C  0.30189851  0.77020072  0.92684353    -0.11200
C861        C  0.31965676  0.76328472  0.87705987     0.01600
C862        C  0.32043961  0.76491599  0.85995762    -0.31200
C863        C  0.30172113  0.74883456  0.95464960     0.03000
C864        C  0.29442113  0.74532426  0.96985027    -0.32900
H865        H  0.32417926  0.72737933  0.93196165     0.14000
H866        H  0.33166570  0.73350849  0.89819837     0.13900
H867        H  0.30096435  0.78659685  0.90098162     0.13700
H868        H  0.29318578  0.78029114  0.93460825     0.12700
C869        C  0.14876613  0.72034671  0.29483102     0.19100
C870        C  0.13873834  0.73230174  0.28233571    -0.10100
C871        C  0.11945727  0.72887479  0.27847260    -0.10900
C872        C  0.11006240  0.71343531  0.28702298     0.20600
C873        C  0.12008161  0.70153363  0.29954496    -0.12900
C874        C  0.13932047  0.70497868  0.30343667    -0.11200
C875        C  0.09045744  0.70919204  0.28240029     0.01600
C876        C  0.07457267  0.70403147  0.27823171    -0.31200
C877        C  0.16887165  0.72330138  0.29828551     0.03000
C878        C  0.18590015  0.72462306  0.30061785    -0.32900
H879        H  0.14586103  0.74413430  0.27543633     0.14000
H880        H  0.11195978  0.73811076  0.26864913     0.13900
H881        H  0.11307631  0.68945776  0.30614146     0.13700
H882        H  0.14688800  0.69552138  0.31299647     0.12700
C883        C  0.10919163  0.71868228  0.22841701     0.19100
C884        C  0.12091520  0.70332609  0.23349929    -0.10100
C885        C  0.14019511  0.70322327  0.22815517    -0.10900
C886        C  0.14788747  0.71848223  0.21771697     0.20600
C887        C  0.13612251  0.73378442  0.21263423    -0.12900
C888        C  0.11689267  0.73388127  0.21795663    -0.11200
C889        C  0.16791503  0.71879953  0.21272311     0.01600
C890        C  0.18480298  0.71957896  0.20925315    -0.31200
C891        C  0.08953929  0.71956054  0.23459781     0.03000
C892        C  0.07345411  0.72289786  0.23985325    -0.32900
H893        H  0.11523180  0.69158926  0.24177656     0.14000
H894        H  0.14913335  0.69135887  0.23232318     0.13900
H895        H  0.14185604  0.74573699  0.20470778     0.13700
H896        H  0.10806482  0.74593598  0.21409400     0.12700
C897        C  0.60950421  0.69623708  0.25962906     0.19100
C898        C  0.61662662  0.69413048  0.27813936    -0.10100
C899        C  0.63597827  0.69003775  0.28097918    -0.10900
C900        C  0.64826065  0.68799498  0.26531941     0.20600
C901        C  0.64119346  0.69064058  0.24688075    -0.12900
C902        C  0.62192277  0.69472398  0.24405410    -0.11200
C903        C  0.66801632  0.68283578  0.26787601     0.01600
C904        C  0.68475211  0.67881089  0.26839800    -0.31200
C905        C  0.58940382  0.69889245  0.25623004     0.03000
C906        C  0.57312347  0.69983346  0.25077039    -0.32900
H907        H  0.60719432  0.69529037  0.29030594     0.14000
H908        H  0.64127625  0.68815376  0.29532176     0.06700
H909        H  0.65052474  0.68923263  0.23465668     0.13700
H910        H  0.61662604  0.69636418  0.22967571     0.12700
C911        C  0.75553537  0.53851523  0.26614342     0.19100
C912        C  0.73850087  0.54627715  0.25925642    -0.10100
C913        C  0.73489884  0.56577029  0.26094739    -0.10900
C914        C  0.74832001  0.57768554  0.26950372     0.20600
C915        C  0.76518638  0.56987591  0.27683539    -0.12900
C916        C  0.76876508  0.55031410  0.27519910    -0.11200
C917        C  0.74519870  0.59798953  0.26972792     0.01600
C918        C  0.74303421  0.61503415  0.26894539    -0.31200
C919        C  0.75993341  0.51887010  0.26220072     0.03000
C920        C  0.76254374  0.50302635  0.25612502    -0.32900
H921        H  0.72823349  0.53733950  0.25208747     0.14000
H922        H  0.72186311  0.57162226  0.25514674     0.13900
H923        H  0.77574446  0.57895137  0.28337798     0.13700
H924        H  0.78206569  0.54452100  0.28042864     0.12700
C925        C  0.97276704  0.68692971  0.24782090     0.19100
C926        C  0.96519000  0.66977942  0.25471229    -0.10100
C927        C  0.94554655  0.66654721  0.25430073    -0.10900
C928        C  0.93322749  0.68044684  0.24703406     0.20600
C929        C  0.94078442  0.69753777  0.23986028    -0.12900
C930        C  0.96051052  0.70075066  0.24020775    -0.11200
C931        C  0.91287444  0.67730546  0.24760419     0.01600
C932        C  0.89588546  0.67466959  0.24881982    -0.31200
C933        C  0.99293326  0.69049451  0.24986484     0.03000
C934        C  0.00958758  0.69159370  0.25407223    -0.32900
H935        H  0.97445997  0.65901793  0.26074372     0.14000
H936        H  0.93993819  0.65331462  0.25994109     0.13900
H937        H  0.93143173  0.70847637  0.23430391     0.13700
H938        H  0.96612963  0.71415180  0.23500254     0.12700
C939        C  0.81496757  0.53834313  0.24946295     0.19100
C940        C  0.83254032  0.54441060  0.25666550    -0.10100
C941        C  0.83785781  0.56358624  0.25542747    -0.10900
C942        C  0.82564505  0.57693955  0.24700805     0.20600
C943        C  0.80811853  0.57086895  0.23963567    -0.12900
C944        C  0.80282136  0.55163827  0.24081685    -0.11200
C945        C  0.83073288  0.59692127  0.24676007     0.01600
C946        C  0.83432656  0.61375981  0.24755212    -0.31200
C947        C  0.80917307  0.51873187  0.25211446     0.03000
C948        C  0.80564367  0.50249604  0.25675962    -0.32900
H949        H  0.84201455  0.53435470  0.26353236     0.14000
H950        H  0.85136837  0.56804511  0.26131330     0.13900
H951        H  0.79843625  0.58103218  0.23323992     0.13700
H952        H  0.78912017  0.54722496  0.23535075     0.12700
C953        C  0.61115613  0.74590379  0.24116599     0.19100
C954        C  0.62003511  0.74527436  0.25900340    -0.10100
C955        C  0.63935558  0.74977486  0.26077108    -0.10900
C956        C  0.65003083  0.75504929  0.24472043     0.20600
C957        C  0.64129045  0.75526882  0.22677626    -0.12900
C958        C  0.62190677  0.75073611  0.22500216    -0.11200
C959        C  0.66983532  0.76036878  0.24682313     0.01600
C960        C  0.68647252  0.76425670  0.24908419    -0.31200
C961        C  0.59080555  0.74288794  0.24001503     0.03000
C962        C  0.57372293  0.74180595  0.24213454    -0.32900
H963        H  0.61191781  0.74160727  0.27163300     0.14000
H964        H  0.64589651  0.74940833  0.27470473     0.13900
H965        H  0.64937655  0.75921003  0.21421523     0.13700
H966        H  0.61525133  0.75135997  0.21113495     0.12700
C967        C  0.97232318  0.73936561  0.27355853     0.19100
C968        C  0.95869214  0.72624024  0.28001845    -0.10100
C969        C  0.93936313  0.73139574  0.28079803    -0.10900
C970        C  0.93357266  0.74974154  0.27523811     0.20600
C971        C  0.94726448  0.76286252  0.26904168    -0.12900
C972        C  0.96649363  0.75770076  0.26818615    -0.11200
C973        C  0.91362838  0.75505868  0.27526297     0.01600
C974        C  0.89696957  0.75948838  0.27448250    -0.31200
C975        C  0.99214081  0.73412892  0.27120507     0.03000
C976        C  0.00871400  0.73252077  0.26666471    -0.32900
H977        H  0.96292635  0.71196032  0.28405406     0.14000
H978        H  0.92893987  0.72102737  0.28549068     0.13900
H979        H  0.94304483  0.77703447  0.26461821     0.13700
H980        H  0.97681896  0.76796008  0.26303708     0.12700
C981        C  0.75063466  0.21745129  0.61699645     0.19100
C982        C  0.74350750  0.20395012  0.60425089    -0.10100
C983        C  0.74915789  0.20427679  0.58512441    -0.10900
C984        C  0.76198346  0.21810957  0.57850972     0.20600
C985        C  0.76905507  0.23171012  0.59121046    -0.12900
C986        C  0.76338961  0.23138384  0.61038616    -0.11200
C987        C  0.76847217  0.21744468  0.55895047     0.01600
C988        C  0.77318174  0.21394957  0.54274942    -0.31200
C989        C  0.74538520  0.21654567  0.63692266     0.03000
C990        C  0.74183025  0.21545237  0.65376235    -0.32900
H991        H  0.73375890  0.19302787  0.60914157     0.14000
H992        H  0.74371318  0.19355788  0.57552782     0.13900
H993        H  0.77914135  0.24234279  0.58637461     0.13700
H994        H  0.76913315  0.24183485  0.62009587     0.12700
C995        C  0.83113942  0.20769499  0.61642033     0.19100
C996        C  0.81449163  0.20026490  0.60837121    -0.10100
C997        C  0.81090280  0.20264331  0.58891075    -0.10900
C998        C  0.82386811  0.21259496  0.57740316     0.20600
C999        C  0.84075371  0.21955968  0.58535772    -0.12900
C1000       C  0.84439528  0.21709397  0.60478511    -0.11200
C1001       C  0.81919399  0.21722064  0.55793835     0.01600
C1002       C  0.81545755  0.22339814  0.54231971    -0.31200
C1003       C  0.83401986  0.20675811  0.63673911     0.03000
C1004       C  0.83557525  0.20693761  0.65385971    -0.32900
H1005       H  0.80407463  0.19304719  0.61721183     0.14000
H1006       H  0.79781009  0.19717998  0.58297264     0.13900
H1007       H  0.85084767  0.22737782  0.57665349     0.13700
H1008       H  0.85727617  0.22297174  0.61081919     0.12700
C1009       C  0.80415405  0.18521326  0.40237151     0.19100
C1010       C  0.79627356  0.17221891  0.41530779    -0.10100
C1011       C  0.79578005  0.17643616  0.43471654    -0.10900
C1012       C  0.80319401  0.19366537  0.44139243     0.20600
C1013       C  0.81126583  0.20664928  0.42850755    -0.12900
C1014       C  0.81172362  0.20243644  0.40901577    -0.11200
C1015       C  0.80123285  0.19815169  0.46130558     0.01600
C1016       C  0.79669665  0.19992143  0.47778978    -0.31200
C1017       C  0.80389638  0.18100595  0.38229383     0.03000
C1018       C  0.80304567  0.17764903  0.36547427    -0.32900
H1019       H  0.79028863  0.15892460  0.41036369     0.14000
H1020       H  0.78933884  0.16636556  0.44450940     0.13900
H1021       H  0.81689921  0.22008773  0.43346187     0.13700
H1022       H  0.81775120  0.21266871  0.39913504     0.12700
C1023       C  0.78666481  0.40217398  0.22796237     0.19100
C1024       C  0.77230622  0.38954962  0.23373251    -0.10100
C1025       C  0.77396639  0.37007606  0.22996242    -0.10900
C1026       C  0.78993797  0.36306899  0.22022313     0.20600
C1027       C  0.80436226  0.37567122  0.21452141    -0.12900
C1028       C  0.80273190  0.39517270  0.21837898    -0.11200
C1029       C  0.79139377  0.34298283  0.21610862     0.01600
C1030       C  0.79200074  0.32600849  0.21339539    -0.31200
C1031       C  0.78433649  0.42232180  0.23120813     0.03000
C1032       C  0.78019112  0.43882938  0.23366839    -0.32900
H1033       H  0.75972007  0.39479786  0.24096930     0.14000
H1034       H  0.76272745  0.36051754  0.23449483     0.13900
H1035       H  0.81679607  0.37044539  0.20700673     0.13700
H1036       H  0.81387355  0.40478422  0.21373179     0.12700
C1037       C  0.77922859  0.40155333  0.28515383     0.19100
C1038       C  0.76214710  0.39147611  0.28298272    -0.10100
C1039       C  0.76114104  0.37217656  0.28817865    -0.10900
C1040       C  0.77716396  0.36288335  0.29570565     0.20600
C1041       C  0.79416863  0.37302810  0.29793347    -0.12900
C1042       C  0.79519130  0.39222802  0.29267977    -0.11200
C1043       C  0.77653529  0.34285451  0.30061907     0.01600
C1044       C  0.77730836  0.32595733  0.30400511    -0.31200
C1045       C  0.78079088  0.42140136  0.27979098     0.03000
C1046       C  0.78518682  0.43772163  0.27639431    -0.32900
H1047       H  0.74969188  0.39847248  0.27718795     0.14000
H1048       H  0.74792534  0.36450029  0.28625271     0.13900
H1049       H  0.80669309  0.36605817  0.30362488     0.13700
H1050       H  0.80849010  0.39981333  0.29444969     0.12700
C1051       C  0.78604445  0.24948920  0.44188434     0.19100
C1052       C  0.77242975  0.24001281  0.43085521    -0.10100
C1053       C  0.77072382  0.24411086  0.41134735    -0.10900
C1054       C  0.78262411  0.25771248  0.40271806     0.20600
C1055       C  0.79621216  0.26714147  0.41378013    -0.12900
C1056       C  0.79791117  0.26305737  0.43322540    -0.11200
C1057       C  0.78138220  0.26168217  0.38248622     0.01600
C1058       C  0.78130982  0.26470234  0.36548717    -0.31200
C1059       C  0.78847391  0.24510336  0.46190377     0.03000
C1060       C  0.79288295  0.24265079  0.47839118    -0.32900
H1061       H  0.76327701  0.22936502  0.43727648     0.14000
H1062       H  0.76024275  0.23658395  0.40298371     0.13900
H1063       H  0.80560196  0.27757565  0.40734204     0.13700
H1064       H  0.80860094  0.27040021  0.44149753     0.12700
C1065       C  0.80594363  0.07800738  0.30092496     0.19100
C1066       C  0.81147254  0.07057897  0.28323635    -0.10100
C1067       C  0.80913316  0.05115809  0.27938168    -0.10900
C1068       C  0.80102505  0.03902830  0.29306057     0.20600
C1069       C  0.79593245  0.04637928  0.31090456    -0.12900
C1070       C  0.79842808  0.06576119  0.31483411    -0.11200
C1071       C  0.79646565  0.01950221  0.28838164     0.01600
C1072       C  0.79051336  0.00377331  0.28469392    -0.31200
C1073       C  0.80683189  0.09829301  0.30436325     0.03000
C1074       C  0.80625639  0.11536763  0.30656892    -0.32900
H1075       H  0.81723169  0.07984749  0.27229896     0.14000
H1076       H  0.81330458  0.04570637  0.26561268     0.13900
H1077       H  0.78958089  0.03722955  0.32161089     0.13700
H1078       H  0.79402217  0.07128384  0.32853870     0.12700
C1079       C  0.75535189  0.86354249  0.25579791     0.19100
C1080       C  0.75884573  0.87431468  0.23929572    -0.10100
C1081       C  0.76399542  0.89356231  0.24066870    -0.10900
C1082       C  0.76574643  0.90216200  0.25855989     0.20600
C1083       C  0.76235762  0.89134123  0.27503608    -0.12900
C1084       C  0.75720364  0.87214455  0.27366738    -0.11200
C1085       C  0.77021681  0.92219638  0.26026341     0.01600
C1086       C  0.77258057  0.93884613  0.26396375    -0.31200
C1087       C  0.75028969  0.84360811  0.25453160     0.03000
C1088       C  0.74691921  0.82671105  0.25424826    -0.32900
H1089       H  0.75756436  0.86785283  0.22538615     0.14000
H1090       H  0.76648694  0.90174091  0.22780853     0.13900
H1091       H  0.76359111  0.89778641  0.28896269     0.13700
H1092       H  0.75465079  0.86401512  0.28655169     0.12700
C1093       C  0.79235996  0.07608420  0.22186806     0.19100
C1094       C  0.80839119  0.06546288  0.21647381    -0.10100
C1095       C  0.80976607  0.04614860  0.22133411    -0.10900
C1096       C  0.79513145  0.03721555  0.23165203     0.20600
C1097       C  0.77898114  0.04776178  0.23686985    -0.12900
C1098       C  0.77759508  0.06710728  0.23198332    -0.11200
C1099       C  0.79751632  0.01767935  0.23790510     0.01600
C1100       C  0.80193093  0.00183042  0.24313251    -0.31200
C1101       C  0.79144314  0.09629124  0.21769418     0.03000
C1102       C  0.79107503  0.11333589  0.21499207    -0.32900
H1103       H  0.81997136  0.07218024  0.20876314     0.14000
H1104       H  0.82242614  0.03826469  0.21736385     0.13900
H1105       H  0.76765389  0.04114388  0.24502668     0.13700
H1106       H  0.76516223  0.07512977  0.23635887     0.12700
C1107       C  0.83102095  0.86159444  0.27705490     0.19100
C1108       C  0.81894112  0.86986998  0.29071119    -0.10100
C1109       C  0.81436881  0.88933895  0.28968025    -0.10900
C1110       C  0.82184253  0.90067313  0.27497330     0.20600
C1111       C  0.83395848  0.89237600  0.26141776    -0.12900
C1112       C  0.83850755  0.87298774  0.26244044    -0.11200
C1113       C  0.81724628  0.92074657  0.27334167     0.01600
C1114       C  0.81536209  0.93739150  0.26913437    -0.31200
C1115       C  0.83517675  0.84135110  0.27742565     0.03000
C1116       C  0.83803465  0.82434706  0.27650406    -0.32900
H1117       H  0.81292624  0.86125280  0.30203429     0.14000
H1118       H  0.80494565  0.89549051  0.30023568     0.13900
H1119       H  0.83982882  0.90090546  0.24994485     0.13700
H1120       H  0.84774544  0.86684435  0.25171242     0.12700
C1121       C  0.79594147  0.25840386  0.11629768     0.19100
C1122       C  0.80268845  0.24092795  0.10937115    -0.10100
C1123       C  0.80107987  0.23653743  0.08999267    -0.10900
C1124       C  0.79256782  0.24953301  0.07744779     0.20600
C1125       C  0.78612614  0.26711658  0.08433762    -0.12900
C1126       C  0.78783735  0.27155337  0.10365986    -0.11200
C1127       C  0.78905947  0.24451417  0.05784852     0.01600
C1128       C  0.78357872  0.24150868  0.04184772    -0.31200
C1129       C  0.79644954  0.26246936  0.13644256     0.03000
C1130       C  0.79600665  0.26521746  0.15342002    -0.32900
H1131       H  0.80887266  0.23056568  0.11899376     0.14000
H1132       H  0.80605849  0.22287443  0.08489934     0.13900
H1133       H  0.77940056  0.27724799  0.07483129     0.13700
H1134       H  0.78248319  0.28506223  0.10880312     0.12700
C1135       C  0.75516769  0.21450531  0.94182712     0.19100
C1136       C  0.75948503  0.22920258  0.92898057    -0.10100
C1137       C  0.75587344  0.22698310  0.90955133    -0.10900
C1138       C  0.74783755  0.21006859  0.90278926     0.20600
C1139       C  0.74378324  0.19523454  0.91558228    -0.12900
C1140       C  0.74743775  0.19744781  0.93505639    -0.11200
C1141       C  0.74363936  0.20814588  0.88277398     0.01600
C1142       C  0.74069546  0.20741847  0.86585044    -0.31200
C1143       C  0.75819617  0.21740135  0.96192071     0.03000
C1144       C  0.76081870  0.22222287  0.97819587    -0.32900
H1145       H  0.76552109  0.24244117  0.93401220     0.14000
H1146       H  0.75918404  0.23852367  0.89982934     0.13900
H1147       H  0.73764492  0.18205507  0.91053678     0.13700
H1148       H  0.74404682  0.18597619  0.94482556     0.12700
C1149       C  0.78165135  0.18073634  0.11758382     0.19100
C1150       C  0.77029753  0.19597764  0.11136589    -0.10100
C1151       C  0.76927241  0.20048223  0.09194383    -0.10900
C1152       C  0.77964873  0.18978228  0.07867830     0.20600
C1153       C  0.79071700  0.17436888  0.08489913    -0.12900
C1154       C  0.79170315  0.16984809  0.10425831    -0.11200
C1155       C  0.78039886  0.19524477  0.05889159     0.01600
C1156       C  0.78433404  0.19843646  0.04245289    -0.31200
C1157       C  0.78360470  0.17669246  0.13763042     0.03000
C1158       C  0.78556470  0.17393795  0.15448756    -0.32900
H1159       H  0.76253928  0.20458224  0.12154731     0.14000
H1160       H  0.76085337  0.21256887  0.08735118     0.13900
H1161       H  0.79893998  0.16609077  0.07480103     0.13700
H1162       H  0.80057727  0.15809343  0.10886048     0.12700
C1163       C  0.81767352  0.22192191  0.90116148     0.19100
C1164       C  0.80918591  0.20570923  0.90914881    -0.10100
C1165       C  0.80443744  0.20534466  0.92848647    -0.10900
C1166       C  0.80808539  0.22121092  0.93995604     0.20600
C1167       C  0.81599021  0.23765141  0.93184967    -0.12900
C1168       C  0.82075902  0.23801297  0.91248112    -0.11200
C1169       C  0.80488401  0.21992757  0.96018614     0.01600
C1170       C  0.80287265  0.21614925  0.97684044    -0.31200
C1171       C  0.82357126  0.22181002  0.88149170     0.03000
C1172       C  0.82796595  0.22113445  0.86488754    -0.32900
H1173       H  0.80658555  0.19323226  0.90052193     0.14000
H1174       H  0.79828854  0.19255909  0.93458300     0.13900
H1175       H  0.81887436  0.24999422  0.94056863     0.13700
H1176       H  0.82718992  0.25067481  0.90643119     0.12700
loop_ 
_geom_bond_atom_site_label_1 
_geom_bond_atom_site_label_2 
_geom_bond_distance 
_geom_bond_site_symmetry_2 
_ccdc_geom_bond_type 
N1            C5   1.359   1_554  A
N1            C2   1.358       .  A
N1            N8   1.418       .  S
C2            C3   1.380       .  A
C2         C1156   1.441       .  S
C3            C4   1.375       .  A
C3            H6   1.083       .  S
C4            C5   1.379   1_554  A
C4            H7   1.082   1_554  S
C5         C1170   1.440       .  S
N8           C12   1.359   1_554  A
N8            C9   1.359       .  A
C9           C10   1.380       .  A
C9         C1128   1.444       .  S
C10          C11   1.376       .  A
C10          H13   1.082       .  S
C11          C12   1.380   1_554  A
C11          H14   1.082   1_554  S
C12        C1144   1.443       .  S
N15          C19   1.361       .  A
N15          C16   1.361       .  A
N15          N22   1.417       .  S
C16          C17   1.379       .  A
C16        C1100   1.449   1_565  S
C17          C18   1.376       .  A
C17          H20   1.082       .  S
C18          C19   1.380       .  A
C18          H21   1.083       .  S
C19        C1114   1.448       .  S
N22          C26   1.360       .  A
N22          C23   1.360       .  A
C23          C24   1.380       .  A
C23        C1072   1.448   1_565  S
C24          C25   1.377       .  A
C24          H27   1.082       .  S
C25          C26   1.381       .  A
C25          H28   1.082       .  S
C26        C1086   1.446       .  S
O29         Cu37   2.017       .  S
O29          C39   1.277       .  A
O30         Cu37   2.009       .  S
O30          C40   1.277       .  A
O31         Cu37   2.014       .  S
O31          C41   1.278       .  A
O32         Cu37   2.022       .  S
O32          C42   1.278       .  A
O33         Cu38   2.024       .  S
O33          C42   1.278       .  A
O34         Cu38   2.017       .  S
O34          C41   1.279       .  A
O35         Cu38   2.019       .  S
O35          C40   1.279       .  A
O36         Cu38   2.024       .  S
O36          C39   1.278       .  A
Cu37        Cu38   2.375       .  S
C39        C1044   1.444       .  S
C40          C82   1.470       .  S
C41          C53   1.471       .  S
C42        C1058   1.446       .  S
O43         Cu51   2.016       .  S
O43          C53   1.279       .  A
O44         Cu51   2.018       .  S
O44          C54   1.277       .  A
O45         Cu51   2.017       .  S
O45          C55   1.277       .  A
O46         Cu51   2.018       .  S
O46          C56   1.279       .  A
O47         Cu52   2.014       .  S
O47          C56   1.278       .  A
O48         Cu52   2.016       .  S
O48          C55   1.277       .  A
O49         Cu52   2.017       .  S
O49          C54   1.277       .  A
O50         Cu52   2.013       .  S
O50          C53   1.278       .  A
Cu51        Cu52   2.376       .  S
C54        C1130   1.441       .  S
C55        C1030   1.440       .  S
C56          C69   1.473       .  S
O57         Cu65   2.008       .  S
O57          C67   1.276       .  A
O58         Cu65   2.006       .  S
O58          C68   1.277       .  A
O59         Cu65   2.020       .  S
O59          C69   1.279       .  A
O60         Cu65   2.023       .  S
O60          C70   1.278       .  A
O61         Cu66   2.022       .  S
O61          C70   1.278       .  A
O62         Cu66   2.014       .  S
O62          C69   1.278       .  A
O63         Cu66   2.014       .  S
O63          C68   1.278       .  A
O64         Cu66   2.020       .  S
O64          C67   1.278       .  A
Cu65        Cu66   2.376       .  S
C67        C1158   1.438       .  S
C68          C83   1.468       .  S
C70        C1102   1.446       .  S
O71         Cu79   2.014       .  S
O71          C81   1.277       .  A
O72         Cu79   2.008       .  S
O72          C82   1.277       .  A
O73         Cu79   2.011       .  S
O73          C83   1.278       .  A
O74         Cu79   2.016       .  S
O74          C84   1.278       .  A
O75         Cu80   2.010       .  S
O75          C84   1.276       .  A
O76         Cu80   2.010       .  S
O76          C83   1.277       .  A
O77         Cu80   2.020       .  S
O77          C82   1.280       .  A
O78         Cu80   2.025       .  S
O78          C81   1.278       .  A
Cu79        Cu80   2.377       .  S
C81        C1074   1.443       .  S
C84        C1018   1.438       .  S
N85          C89   1.361       .  A
N85          C86   1.357       .  A
N85          N92   1.416       .  S
C86          C87   1.379       .  A
C86        C1002   1.444       .  S
C87          C88   1.378       .  A
C87          H90   1.082       .  S
C88          C89   1.381       .  A
C88          H91   1.082       .  S
C89        C1060   1.448       .  S
N92          C96   1.360       .  A
N92          C93   1.357       .  A
C93          C94   1.379       .  A
C93        C1016   1.441       .  S
C94          C95   1.376       .  A
C94          H97   1.082       .  S
C95          C96   1.380       .  A
C95          H98   1.082       .  S
C96         C988   1.446       .  S
O99        Cu107   2.019       .  S
O99         C109   1.278       .  A
O100       Cu107   2.021       .  S
O100        C110   1.278       .  A
O101       Cu107   2.026       .  S
O101        C111   1.278       .  A
O102       Cu107   2.019       .  S
O102        C112   1.279       .  A
O103       Cu108   2.012       .  S
O103        C112   1.277       .  A
O104       Cu108   2.022       .  S
O104        C111   1.278       .  A
O105       Cu108   2.021       .  S
O105        C110   1.278       .  A
O106       Cu108   2.012       .  S
O106        C109   1.278       .  A
Cu107      Cu108   2.375       .  S
C109        C125   1.471       .  S
C110        C974   1.445       .  S
C111       C1116   1.447       .  S
C112        C137   1.471       .  S
O113       Cu121   2.016       .  S
O113        C123   1.277       .  A
O114       Cu121   2.003       .  S
O114        C124   1.277       .  A
O115       Cu121   2.019       .  S
O115        C125   1.279       .  A
O116       Cu121   2.027       .  S
O116        C126   1.279       .  A
O117       Cu122   2.014       .  S
O117        C126   1.276       .  A
O118       Cu122   2.011       .  S
O118        C125   1.278       .  A
O119       Cu122   2.018       .  S
O119        C124   1.279       .  A
O120       Cu122   2.023       .  S
O120        C123   1.278       .  A
Cu121      Cu122   2.376       .  S
C123       C1088   1.444       .  S
C124        C151   1.467       .  S
C126        C960   1.444       .  S
O127       Cu135   2.009       .  S
O127        C137   1.277       .  A
O128       Cu135   2.017       .  S
O128        C138   1.277       .  A
O129       Cu135   2.023       .  S
O129        C139   1.278       .  A
O130       Cu135   2.013       .  S
O130        C140   1.278       .  A
O131       Cu136   2.009       .  S
O131        C140   1.278       .  A
O132       Cu136   2.015       .  S
O132        C139   1.277       .  A
O133       Cu136   2.024       .  S
O133        C138   1.278       .  A
O134       Cu136   2.022       .  S
O134        C137   1.280       .  A
Cu135      Cu136   2.376       .  S
C138        C946   1.444       .  S
C139        C932   1.443       .  S
C140        C154   1.468       .  S
O141       Cu149   2.011       .  S
O141        C151   1.278       .  A
O142       Cu149   2.018       .  S
O142        C152   1.278       .  A
O143       Cu149   2.012       .  S
O143        C153   1.277       .  A
O144       Cu149   2.005       .  S
O144        C154   1.277       .  A
O145       Cu150   2.018       .  S
O145        C154   1.279       .  A
O146       Cu150   2.020       .  S
O146        C153   1.278       .  A
O147       Cu150   2.011       .  S
O147        C152   1.276       .  A
O148       Cu150   2.008       .  S
O148        C151   1.278       .  A
Cu149      Cu150   2.377       .  S
C152        C918   1.439       .  S
C153        C904   1.441       .  S
N155        C159   1.360       .  A
N155        C156   1.361       .  A
N155        N162   1.417       .  S
C156        C157   1.379       .  A
C156        C948   1.448       .  S
C157        C158   1.376       .  A
C157        H160   1.082       .  S
C158        C159   1.380       .  A
C158        H161   1.082       .  S
C159       C1046   1.446       .  S
N162        C166   1.358       .  A
N162        C163   1.357       .  A
C163        C164   1.380       .  A
C163        C920   1.442       .  S
C164        C165   1.377       .  A
C164        H167   1.082       .  S
C165        C166   1.380       .  A
C165        H168   1.082       .  S
C166       C1032   1.442       .  S
N169        C173   1.360       .  A
N169        C170   1.361       .  A
N169        N176   1.417       .  S
C170        C171   1.380       .  A
C170        C976   1.446       .  S
C171        C172   1.376       .  A
C171        H174   1.083       .  S
C172        C173   1.379       .  A
C172        H175   1.082       .  S
C173        C892   1.446       .  S
N176        C180   1.359       .  A
N176        C177   1.360       .  A
C177        C178   1.380       .  A
C177        C876   1.447       .  S
C178        C179   1.378       .  A
C178        H181   1.082       .  S
C179        C180   1.381       .  A
C179        H182   1.083       .  S
C180        C934   1.445       .  S
N183        C187   1.357   1_554  A
N183        C184   1.363       .  A
N183        N190   1.417       .  S
C184        C185   1.381       .  A
C184        C848   1.450       .  S
C185        C186   1.377   1_554  A
C185        H188   1.082       .  S
C186        C187   1.379       .  A
C186        H189   1.082       .  S
C187        C864   1.444       .  S
N190        C194   1.356       .  A
N190        C191   1.361   1_554  A
C191        C192   1.380       .  A
C191        C836   1.447       .  S
C192        C193   1.376   1_556  A
C192        H195   1.082       .  S
C193        C194   1.380       .  A
C193        H196   1.082       .  S
C194        C822   1.438       .  S
O197       Cu205   2.019       .  S
O197        C207   1.277       .  A
O198       Cu205   2.014       .  S
O198        C208   1.279       .  A
O199       Cu205   2.013       .  S
O199        C209   1.278       .  A
O200       Cu205   2.016       .  S
O200        C210   1.277       .  A
O201       Cu206   2.013       .  S
O201        C210   1.277       .  A
O202       Cu206   2.007       .  S
O202        C209   1.277       .  A
O203       Cu206   2.018       .  S
O203        C208   1.278       .  A
O204       Cu206   2.021       .  S
O204        C207   1.278       .  A
Cu205      Cu206   2.376       .  S
C207        C806   1.444       .  S
C208        C223   1.472       .  S
C209        C251   1.467       .  S
C210        C792   1.439       .  S
O211       Cu219   2.031       .  S
O211        C221   1.279       .  A
O212       Cu219   2.025       .  S
O212        C222   1.280       .  A
O213       Cu219   2.004       .  S
O213        C223   1.276       .  A
O214       Cu219   2.011       .  S
O214        C224   1.276       .  A
O215       Cu220   2.031       .  S
O215        C224   1.279       .  A
O216       Cu220   2.028       .  S
O216        C223   1.280       .  A
O217       Cu220   2.013       .  S
O217        C222   1.278       .  A
O218       Cu220   2.018       .  S
O218        C221   1.277       .  A
Cu219      Cu220   2.375       .  S
C221        C780   1.447       .  S
C222        C237   1.475       .  S
C224        C878   1.444       .  S
O225       Cu233   2.020       .  S
O225        C235   1.278       .  A
O226       Cu233   2.017       .  S
O226        C236   1.279       .  A
O227       Cu233   2.021       .  S
O227        C237   1.278       .  A
O228       Cu233   2.025       .  S
O228        C238   1.278       .  A
O229       Cu234   2.029       .  S
O229        C238   1.279       .  A
O230       Cu234   2.018       .  S
O230        C237   1.279       .  A
O231       Cu234   2.014       .  S
O231        C236   1.278       .  A
O232       Cu234   2.021       .  S
O232        C235   1.278       .  A
Cu233      Cu234   2.374       .  S
C235        C890   1.444       .  S
C236        C250   1.472       .  S
C238        C850   1.449       .  S
O239       Cu247   2.023       .  S
O239        C249   1.278       .  A
O240       Cu247   2.022       .  S
O240        C250   1.280       .  A
O241       Cu247   2.007       .  S
O241        C251   1.277       .  A
O242       Cu247   2.007       .  S
O242        C252   1.276       .  A
O243       Cu248   2.013       .  S
O243        C252   1.277       .  A
O244       Cu248   2.012       .  S
O244        C251   1.278       .  A
O245       Cu248   2.010       .  S
O245        C250   1.277       .  A
O246       Cu248   2.013       .  S
O246        C249   1.277       .  A
Cu247      Cu248   2.377       .  S
C249        C764   1.442       .  S
C252        C820   1.435       .  S
N253        C257   1.359       .  A
N253        C254   1.360       .  A
N253        N260   1.417       .  S
C254        C255   1.380       .  A
C254        C962   1.446       .  S
C255        C256   1.377       .  A
C255        H258   1.082       .  S
C256        C257   1.379       .  A
C256        H259   1.082       .  S
C257        C808   1.447       .  S
N260        C264   1.359       .  A
N260        C261   1.358       .  A
C261        C262   1.381       .  A
C261        C906   1.443       .  S
C262        C263   1.378       .  A
C262        H265   1.082       .  S
C263        C264   1.380       .  A
C263        H266   1.082       .  S
C264        C766   1.446       .  S
O267       Cu275   2.017       .  S
O267        C277   1.277       .  A
O268       Cu275   2.016       .  S
O268        C278   1.279       .  A
O269       Cu275   2.015       .  S
O269        C279   1.279       .  A
O270       Cu275   2.019       .  S
O270        C280   1.277       .  A
O271       Cu276   2.009       .  S
O271        C280   1.276       .  A
O272       Cu276   2.004       .  S
O272        C279   1.277       .  A
O273       Cu276   2.003       .  S
O273        C278   1.277       .  A
O274       Cu276   2.007       .  S
O274        C277   1.276       .  A
Cu275      Cu276   2.378       .  S
C277        C750   1.436       .  S
C278        C307   1.468       .  S
C279        C293   1.467       .  S
C280        C862   1.438       .  S
O281       Cu289   2.011       .  S
O281        C291   1.276       .  A
O282       Cu289   2.010       .  S
O282        C292   1.278       .  A
O283       Cu289   2.009       .  S
O283        C293   1.278       .  A
O284       Cu289   2.014       .  S
O284        C294   1.277       .  A
O285       Cu290   2.018       .  S
O285        C294   1.277       .  A
O286       Cu290   2.010       .  S
O286        C293   1.277       .  A
O287       Cu290   2.037       .  S
O287        C292   1.281       .  A
O288       Cu290   2.038       .  S
O288        C291   1.280       .  A
Cu289      Cu290   2.375       .  S
C291        C722   1.447       .  S
C292        C320   1.478       .  S
C294        C736   1.440       .  S
O295       Cu303   2.034       .  S
O295        C305   1.280       .  A
O296       Cu303   2.031       .  S
O296        C306   1.280       .  A
O297       Cu303   2.012       .  S
O297        C307   1.277       .  A
O298       Cu303   2.015       .  S
O298        C308   1.277       .  A
O299       Cu304   2.012       .  S
O299        C308   1.277       .  A
O300       Cu304   2.009       .  S
O300        C307   1.278       .  A
O301       Cu304   2.006       .  S
O301        C306   1.277       .  A
O302       Cu304   2.008       .  S
O302        C305   1.275       .  A
Cu303      Cu304   2.376       .  S
C305        C834   1.444       .  S
C306        C321   1.474       .  S
C308        C708   1.439       .  S
O309       Cu317   2.040       .  S
O309        C319   1.281       .  A
O310       Cu317   2.036       .  S
O310        C320   1.280       .  A
O311       Cu317   2.026       .  S
O311        C321   1.279       .  A
O312       Cu317   2.029       .  S
O312        C322   1.279       .  A
O313       Cu318   2.020       .  S
O313        C322   1.277       .  A
O314       Cu318   2.011       .  S
O314        C321   1.278       .  A
O315       Cu318   2.011       .  S
O315        C320   1.278       .  A
O316       Cu318   2.022       .  S
O316        C319   1.277       .  A
Cu317      Cu318   2.373       .  S
C319        C680   1.453       .  S
C322        C694   1.447       .  S
N323        C327   1.360       .  A
N323        C324   1.360       .  A
N323        N330   1.419       .  S
C324        C325   1.380       .  A
C324        C794   1.442       .  S
C325        C326   1.374       .  A
C325        H328   1.083       .  S
C326        C327   1.379       .  A
C326        H329   1.082       .  S
C327        C738   1.443       .  S
N330        C334   1.363       .  A
N330        C331   1.363       .  A
C331        C332   1.379       .  A
C331        C696   1.450       .  S
C332        C333   1.375       .  A
C332        H335   1.082       .  S
C333        C334   1.380       .  A
C333        H336   1.083       .  S
C334        C778   1.449       .  S
O337       Cu345   2.001       .  S
O337        C347   1.277       .  A
O338       Cu345   2.011       .  S
O338        C348   1.277       .  A
O339       Cu345   2.012       .  S
O339        C349   1.277       .  A
O340       Cu345   2.008       .  S
O340        C350   1.277       .  A
O341       Cu346   2.005       .  S
O341        C350   1.277       .  A
O342       Cu346   2.008       .  S
O342        C349   1.276       .  A
O343       Cu346   2.011       .  S
O343        C348   1.276       .  A
O344       Cu346   2.006       .  S
O344        C347   1.277       .  A
Cu345      Cu346   2.378       .  S
C347        C363   1.462       .  S
C348        C666   1.437       .  S
C349       C1172   1.436       .  S
C350        C376   1.464       .  S
O351       Cu359   2.020       .  S
O351        C361   1.278       .  A
O352       Cu359   2.018       .  S
O352        C362   1.279       .  A
O353       Cu359   2.001       .  S
O353        C363   1.277       .  A
O354       Cu359   2.007       .  S
O354        C364   1.276       .  A
O355       Cu360   2.012       .  S
O355        C364   1.277       .  A
O356       Cu360   2.004       .  S
O356        C363   1.277       .  A
O357       Cu360   2.007       .  S
O357        C362   1.278       .  A
O358       Cu360   2.013       .  S
O358        C361   1.277       .  A
Cu359      Cu360   2.378       .  S
C361       C1142   1.440       .  S
C362        C390   1.470       .  S
C364        C654   1.435       .  S
O365       Cu373   2.017       .  S
O365        C375   1.277       .  A
O366       Cu373   2.009       .  S
O366        C376   1.278       .  A
O367       Cu373   2.024       .  S
O367        C377   1.280       .  A
O368       Cu373   2.023       .  S
O368        C378   1.278       .  A
O369       Cu374   2.022       .  S
O369        C378   1.278       .  A
O370       Cu374   2.021       .  S
O370        C377   1.279       .  A
O371       Cu374   2.002       .  S
O371        C376   1.277       .  A
O372       Cu374   2.014       .  S
O372        C375   1.277       .  A
Cu373      Cu374   2.376       .  S
C375       C1004   1.440       .  S
C377        C391   1.477       .  S
C378        C638   1.446       .  S
O379       Cu387   2.013       .  S
O379        C389   1.276       .  A
O380       Cu387   2.009       .  S
O380        C390   1.278       .  A
O381       Cu387   2.027       .  S
O381        C391   1.280       .  A
O382       Cu387   2.027       .  S
O382        C392   1.279       .  A
O383       Cu388   2.023       .  S
O383        C392   1.278       .  A
O384       Cu388   2.019       .  S
O384        C391   1.278       .  A
O385       Cu388   2.018       .  S
O385        C390   1.278       .  A
O386       Cu388   2.024       .  S
O386        C389   1.278       .  A
Cu387      Cu388   2.375       .  S
C389        C990   1.443       .  S
C392        C624   1.448       .  S
N393        C397   1.355       .  A
N393        C394   1.359       .  A
N393        N400   1.416       .  S
C394        C395   1.379       .  A
C394        C610   1.443       .  S
C395        C396   1.375       .  A
C395        H398   1.082       .  S
C396        C397   1.379       .  A
C396        H399   1.082       .  S
C397        C652   1.437       .  S
N400        C404   1.357       .  A
N400        C401   1.361       .  A
C401        C402   1.381       .  A
C401        C626   1.450       .  S
C402        C403   1.379       .  A
C402        H405   1.082       .  S
C403        C404   1.379       .  A
C403        H406   1.082       .  S
C404        C596   1.444       .  S
N407        C411   1.356       .  A
N407        C408   1.363       .  A
N407        N414   1.418       .  S
C408        C409   1.380       .  A
C408        C582   1.448       .  S
C409        C410   1.375       .  A
C409        H412   1.083       .  S
C410        C411   1.379       .  A
C410        H413   1.082       .  S
C411        C752   1.438       .  S
N414        C418   1.356       .  A
N414        C415   1.363       .  A
C415        C416   1.381       .  A
C415        C724   1.448       .  S
C416        C417   1.375       .  A
C416        H419   1.083       .  S
C417        C418   1.378       .  A
C417        H420   1.082       .  S
C418        C568   1.438       .  S
N421        C425   1.359       .  A
N421        C422   1.358       .  A
N421        N428   1.418       .  S
C422        C423   1.380       .  A
C422        C668   1.439       .  S
C423        C424   1.375       .  A
C423        H426   1.082       .  S
C424        C425   1.379       .  A
C424        H427   1.082       .  S
C425        C556   1.440       .  S
N428        C432   1.362       .  A
N428        C429   1.361       .  A
C429        C430   1.379       .  A
C429        C540   1.447       .  S
C430        C431   1.376       .  A
C430        H433   1.082       .  S
C431        C432   1.380       .  A
C431        H434   1.082       .  S
C432        C640   1.448       .  S
O435       Cu443   2.018       .  S
O435        C445   1.279       .  A
O436       Cu443   2.024       .  S
O436        C446   1.279       .  A
O437       Cu443   2.015       .  S
O437        C447   1.277       .  A
O438       Cu443   2.010       .  S
O438        C448   1.277       .  A
O439       Cu444   1.999       .  S
O439        C448   1.277       .  A
O440       Cu444   2.003       .  S
O440        C447   1.275       .  A
O441       Cu444   2.008       .  S
O441        C446   1.276       .  A
O442       Cu444   2.005       .  S
O442        C445   1.277       .  A
Cu443      Cu444   2.378       .  S
C445        C476   1.469       .  S
C446        C612   1.440       .  S
C447        C526   1.435       .  S
C448        C489   1.463       .  S
O449       Cu457   2.012       .  S
O449        C459   1.276       .  A
O450       Cu457   2.013       .  S
O450        C460   1.278       .  A
O451       Cu457   2.012       .  S
O451        C461   1.278       .  A
O452       Cu457   2.012       .  S
O452        C462   1.276       .  A
O453       Cu458   2.016       .  S
O453        C462   1.277       .  A
O454       Cu458   2.010       .  S
O454        C461   1.277       .  A
O455       Cu458   2.031       .  S
O455        C460   1.280       .  A
O456       Cu458   2.031       .  S
O456        C459   1.280       .  A
Cu457      Cu458   2.376       .  S
C459        C584   1.445       .  S
C460        C473   1.477       .  S
C461        C488   1.468       .  S
C462        C554   1.438       .  S
O463       Cu471   2.034       .  S
O463        C473   1.280       .  A
O464       Cu471   2.041       .  S
O464        C474   1.281       .  A
O465       Cu471   2.023       .  S
O465        C475   1.278       .  A
O466       Cu471   2.017       .  S
O466        C476   1.278       .  A
O467       Cu472   2.005       .  S
O467        C476   1.277       .  A
O468       Cu472   2.016       .  S
O468        C475   1.277       .  A
O469       Cu472   2.026       .  S
O469        C474   1.278       .  A
O470       Cu472   2.012       .  S
O470        C473   1.278       .  A
Cu471      Cu472   2.374       .  S
C474        C512   1.455       .  S
C475        C542   1.444       .  S
O477       Cu485   2.012       .  S
O477        C487   1.277       .  A
O478       Cu485   2.008       .  S
O478        C488   1.277       .  A
O479       Cu485   1.989       .  S
O479        C489   1.275       .  A
O480       Cu485   1.995       .  S
O480        C490   1.274       .  A
O481       Cu486   2.020       .  S
O481        C490   1.278       .  A
O482       Cu486   2.019       .  S
O482        C489   1.279       .  A
O483       Cu486   2.015       .  S
O483        C488   1.278       .  A
O484       Cu486   2.017       .  S
O484        C487   1.277       .  A
Cu485      Cu486   2.378       .  S
C487        C598   1.439       .  S
C490        C570   1.433       .  S
N491        C495   1.359       .  A
N491        C492   1.362       .  A
N491        N498   1.420       .  S
C492        C493   1.380       .  A
C492        C710   1.441       .  S
C493        C494   1.373       .  A
C493        H496   1.083       .  S
C494        C495   1.379       .  A
C494        H497   1.083       .  S
C495        C528   1.438       .  S
N498        C502   1.368       .  A
N498        C499   1.366       .  A
C499        C500   1.379       .  A
C499        C682   1.455       .  S
C500        C501   1.375       .  A
C500        H503   1.082       .  S
C501        C502   1.380       .  A
C501        H504   1.083       .  S
C502        C514   1.458       .  S
C505        C506   1.405       .  A
C505        C510   1.405       .  A
C505        C513   1.460       .  S
C506        C507   1.405       .  A
C506        H515   1.083       .  S
C507        C508   1.404       .  A
C507        H516   1.083       .  S
C508        C509   1.406       .  A
C508        C511   1.460       .  S
C509        C510   1.408       .  A
C509        H517   1.083       .  S
C510        H518   1.083       .  S
C511        C512   1.218       .  T
C513        C514   1.218       .  T
C519        C520   1.401       .  A
C519        C524   1.401       .  A
C519        C527   1.439       .  S
C520        C521   1.402       .  A
C520        H529   1.083       .  S
C521        C522   1.404       .  A
C521        H530   1.083       .  S
C522        C523   1.399       .  A
C522        C525   1.440       .  S
C523        C524   1.396       .  A
C523        H531   1.084       .  S
C524        H532   1.084       .  S
C525        C526   1.206       .  T
C527        C528   1.206       .  T
C533        C534   1.403       .  A
C533        C538   1.403       .  A
C533        C541   1.449       .  S
C534        C535   1.404       .  A
C534        H543   1.083       .  S
C535        C536   1.403       .  A
C535        H544   1.083       .  S
C536        C537   1.403       .  A
C536        C539   1.448       .  S
C537        C538   1.401       .  A
C537        H545   1.083       .  S
C538        H546   1.083       .  S
C539        C540   1.211       .  T
C541        C542   1.212       .  T
C547        C548   1.402       .  A
C547        C552   1.401       .  A
C547        C555   1.441       .  S
C548        C549   1.402       .  A
C548        H557   1.083       .  S
C549        C550   1.403       .  A
C549        H558   1.083       .  S
C550        C551   1.400       .  A
C550        C553   1.443       .  S
C551        C552   1.397       .  A
C551        H559   1.083       .  S
C552        H560   1.084       .  S
C553        C554   1.208       .  T
C555        C556   1.207       .  T
C561        C562   1.402       .  A
C561        C566   1.400       .  A
C561        C569   1.438       .  S
C562        C563   1.401       .  A
C562        H571   1.083       .  S
C563        C564   1.401       .  A
C563        H572   1.083       .  S
C564        C565   1.400       .  A
C564        C567   1.438       .  S
C565        C566   1.396       .  A
C565        H573   1.084       .  S
C566        H574   1.084       .  S
C567        C568   1.205   1_545  T
C569        C570   1.205       .  T
C575        C576   1.404       .  A
C575        C580   1.402       .  A
C575        C583   1.449       .  S
C576        C577   1.403       .  A
C576        H585   1.083       .  S
C577        C578   1.402       .  A
C577        H586   1.082       .  S
C578        C579   1.404       .  A
C578        C581   1.449       .  S
C579        C580   1.402       .  A
C579        H587   1.083       .  S
C580        H588   1.083       .  S
C581        C582   1.212   1_545  T
C583        C584   1.212       .  T
C589        C590   1.401       .  A
C589        C594   1.403       .  A
C589        C597   1.443       .  S
C590        C591   1.399       .  A
C590        H599   1.083       .  S
C591        C592   1.402       .  A
C591        H600   1.083       .  S
C592        C593   1.402       .  A
C592        C595   1.444       .  S
C593        C594   1.401       .  A
C593        H601   1.083       .  S
C594        H602   1.083       .  S
C595        C596   1.209       .  T
C597        C598   1.208       .  T
C603        C604   1.400       .  A
C603        C608   1.404       .  A
C603        C611   1.445       .  S
C604        C605   1.399       .  A
C604        H613   1.083       .  S
C605        C606   1.402       .  A
C605        H614   1.084       .  S
C606        C607   1.402       .  A
C606        C609   1.444       .  S
C607        C608   1.403       .  A
C607        H615   1.083       .  S
C608        H616   1.083       .  S
C609        C610   1.209       .  T
C611        C612   1.209       .  T
C617        C618   1.404       .  A
C617        C622   1.403       .  A
C617        C625   1.451       .  S
C618        C619   1.402       .  A
C618        H627   1.083       .  S
C619        C620   1.402       .  A
C619        H628   1.083       .  S
C620        C621   1.405       .  A
C620        C623   1.453       .  S
C621        C622   1.405       .  A
C621        H629   1.083       .  S
C622        H630   1.083       .  S
C623        C624   1.214       .  T
C625        C626   1.213       .  T
C631        C632   1.404       .  A
C631        C636   1.402       .  A
C631        C639   1.449       .  S
C632        C633   1.402       .  A
C632        H641   1.084       .  S
C633        C634   1.403       .  A
C633        H642   1.083       .  S
C634        C635   1.403       .  A
C634        C637   1.451       .  S
C635        C636   1.403       .  A
C635        H643   1.083       .  S
C636        H644   1.083       .  S
C637        C638   1.212       .  T
C639        C640   1.212   1_655  T
C645        C646   1.399       .  A
C645        C650   1.403       .  A
C645        C653   1.439       .  S
C646        C647   1.396       .  A
C646        H655   1.084       .  S
C647        C648   1.401       .  A
C647        H656   1.084       .  S
C648        C649   1.401       .  A
C648        C651   1.438       .  S
C649        C650   1.401       .  A
C649        H657   1.083       .  S
C650        H658   1.083       .  S
C651        C652   1.205       .  T
C653        C654   1.206       .  T
C659        C660   1.401       .  A
C659        C664   1.401       .  A
C659        C667   1.440       .  S
C660        C661   1.397       .  A
C660        H669   1.084       .  S
C661        C662   1.400       .  A
C661        H670   1.084       .  S
C662        C663   1.403       .  A
C662        C665   1.441       .  S
C663        C664   1.402       .  A
C663        H671   1.083       .  S
C664        H672   1.083       .  S
C665        C666   1.207       .  T
C667        C668   1.206   1_655  T
C673        C674   1.404       .  A
C673        C678   1.404       .  A
C673        C681   1.457       .  S
C674        C675   1.407       .  A
C674        H683   1.083       .  S
C675        C676   1.405       .  A
C675        H684   1.083       .  S
C676        C677   1.404       .  A
C676        C679   1.457       .  S
C677        C678   1.404       .  A
C677        H685   1.083       .  S
C678        H686   1.083       .  S
C679        C680   1.217       .  T
C681        C682   1.216       .  T
C687        C688   1.404       .  A
C687        C692   1.403       .  A
C687        C695   1.451       .  S
C688        C689   1.403       .  A
C688        H697   1.083       .  S
C689        C690   1.403       .  A
C689        H698   1.083       .  S
C690        C691   1.404       .  A
C690        C693   1.452       .  S
C691        C692   1.404       .  A
C691        H699   1.083       .  S
C692        H700   1.083       .  S
C693        C694   1.213       .  T
C695        C696   1.213       .  T
C701        C702   1.402       .  A
C701        C706   1.401       .  A
C701        C709   1.443       .  S
C702        C703   1.399       .  A
C702        H711   1.083       .  S
C703        C704   1.402       .  A
C703        H712   1.084       .  S
C704        C705   1.402       .  A
C704        C707   1.444       .  S
C705        C706   1.401       .  A
C705        H713   1.083       .  S
C706        H714   1.083       .  S
C707        C708   1.208       .  T
C709        C710   1.208       .  T
C715        C716   1.403       .  A
C715        C720   1.404       .  A
C715        C723   1.451       .  S
C716        C717   1.405       .  A
C716        H725   1.083       .  S
C717        C718   1.406       .  A
C717        H726   1.083       .  S
C718        C719   1.401       .  A
C718        C721   1.452       .  S
C719        C720   1.402       .  A
C719        H727   1.083       .  S
C720        H728   1.084       .  S
C721        C722   1.213       .  T
C723        C724   1.212       .  T
C729        C730   1.402       .  A
C729        C734   1.402       .  A
C729        C737   1.444       .  S
C730        C731   1.402       .  A
C730        H739   1.083       .  S
C731        C732   1.403       .  A
C731        H740   1.083       .  S
C732        C733   1.401       .  A
C732        C735   1.445       .  S
C733        C734   1.400       .  A
C733        H741   1.083       .  S
C734        H742   1.084       .  S
C735        C736   1.209       .  T
C737        C738   1.209       .  T
C743        C744   1.401       .  A
C743        C748   1.401       .  A
C743        C751   1.439       .  S
C744        C745   1.402       .  A
C744        H753   1.083       .  S
C745        C746   1.403       .  A
C745        H754   1.083       .  S
C746        C747   1.400       .  A
C746        C749   1.441       .  S
C747        C748   1.396       .  A
C747        H755   1.084       .  S
C748        H756   1.084       .  S
C749        C750   1.207       .  T
C751        C752   1.205       .  T
C757        C758   1.403       .  A
C757        C762   1.402       .  A
C757        C765   1.446       .  S
C758        C759   1.404       .  A
C758        H767   1.083       .  S
C759        C760   1.404       .  A
C759        H768   1.083       .  S
C760        C761   1.401       .  A
C760        C763   1.446       .  S
C761        C762   1.399       .  A
C761        H769   1.083       .  S
C762        H770   1.084       .  S
C763        C764   1.210       .  T
C765        C766   1.210       .  T
C771        C772   1.405       .  A
C771        C776   1.402       .  A
C771        C779   1.452       .  S
C772        C773   1.405       .  A
C772        H781   1.083       .  S
C773        C774   1.403       .  A
C773        H782   1.083       .  S
C774        C775   1.403       .  A
C774        C777   1.451       .  S
C775        C776   1.401       .  A
C775        H783   1.083       .  S
C776        H784   1.083       .  S
C777        C778   1.213       .  T
C779        C780   1.213       .  T
C785        C786   1.402       .  A
C785        C790   1.402       .  A
C785        C793   1.444       .  S
C786        C787   1.399       .  A
C786        H795   1.083       .  S
C787        C788   1.402       .  A
C787        H796   1.083       .  S
C788        C789   1.402       .  A
C788        C791   1.444       .  S
C789        C790   1.402       .  A
C789        H797   1.083       .  S
C790        H798   1.083       .  S
C791        C792   1.209       .  T
C793        C794   1.209       .  T
C799        C800   1.402       .  A
C799        C804   1.402       .  A
C799        C807   1.447       .  S
C800        C801   1.403       .  A
C800        H809   1.083       .  S
C801        C802   1.404       .  A
C801        H810   1.083       .  S
C802        C803   1.402       .  A
C802        C805   1.448       .  S
C803        C804   1.401       .  A
C803        H811   1.084       .  S
C804        H812   1.083       .  S
C805        C806   1.211       .  T
C807        C808   1.210       .  T
C813        C814   1.402       .  A
C813        C818   1.400       .  A
C813        C821   1.439       .  S
C814        C815   1.402       .  A
C814        H823   1.083       .  S
C815        C816   1.403       .  A
C815        H824   1.083       .  S
C816        C817   1.400       .  A
C816        C819   1.440       .  S
C817        C818   1.395       .  A
C817        H825   1.084       .  S
C818        H826   1.083       .  S
C819        C820   1.206       .  T
C821        C822   1.205       .  T
C827        C828   1.404       .  A
C827        C832   1.402       .  A
C827        C835   1.448       .  S
C828        C829   1.402       .  A
C828        H837   1.084       .  S
C829        C830   1.402       .  A
C829        H838   1.083       .  S
C830        C831   1.404       .  A
C830        C833   1.449       .  S
C831        C832   1.403       .  A
C831        H839   1.083       .  S
C832        H840   1.083       .  S
C833        C834   1.211       .  T
C835        C836   1.211       .  T
C841        C842   1.405       .  A
C841        C846   1.403       .  A
C841        C849   1.454       .  S
C842        C843   1.405       .  A
C842        H851   1.083       .  S
C843        C844   1.403       .  A
C843        H852   1.083       .  S
C844        C845   1.404       .  A
C844        C847   1.453       .  S
C845        C846   1.403       .  A
C845        H853   1.083       .  S
C846        H854   1.083       .  S
C847        C848   1.214       .  T
C849        C850   1.214       .  T
C855        C856   1.402       .  A
C855        C860   1.402       .  A
C855        C863   1.443       .  S
C856        C857   1.401       .  A
C856        H865   1.083       .  S
C857        C858   1.403       .  A
C857        H866   1.083       .  S
C858        C859   1.401       .  A
C858        C861   1.443       .  S
C859        C860   1.399       .  A
C859        H867   1.083       .  S
C860        H868   1.084       .  S
C861        C862   1.208       .  T
C863        C864   1.208       .  T
C869        C870   1.404       .  A
C869        C874   1.402       .  A
C869        C877   1.449       .  S
C870        C871   1.403       .  A
C870        H879   1.083       .  S
C871        C872   1.403       .  A
C871        H880   1.083       .  S
C872        C873   1.402       .  A
C872        C875   1.447       .  S
C873        C874   1.401       .  A
C873        H881   1.083       .  S
C874        H882   1.084       .  S
C875        C876   1.211       .  T
C877        C878   1.211       .  T
C883        C884   1.403       .  A
C883        C888   1.402       .  A
C883        C891   1.447       .  S
C884        C885   1.404       .  A
C884        H893   1.083       .  S
C885        C886   1.405       .  A
C885        H894   1.083       .  S
C886        C887   1.401       .  A
C886        C889   1.449       .  S
C887        C888   1.400       .  A
C887        H895   1.083       .  S
C888        H896   1.083       .  S
C889        C890   1.211       .  T
C891        C892   1.210       .  T
C897        C898   1.403       .  A
C897        C902   1.401       .  A
C897        C905   1.444       .  S
C898        C899   1.404       .  A
C898        H907   1.083       .  S
C899        C900   1.404       .  A
C899        H908   1.083       .  S
C900        C901   1.401       .  A
C900        C903   1.445       .  S
C901        C902   1.398       .  A
C901        H909   1.083       .  S
C902        H910   1.084       .  S
C903        C904   1.209       .  T
C905        C906   1.209       .  T
C911        C912   1.401       .  A
C911        C916   1.402       .  A
C911        C919   1.442       .  S
C912        C913   1.398       .  A
C912        H921   1.083       .  S
C913        C914   1.400       .  A
C913        H922   1.084       .  S
C914        C915   1.404       .  A
C914        C917   1.443       .  S
C915        C916   1.402       .  A
C915        H923   1.083       .  S
C916        H924   1.083       .  S
C917        C918   1.208       .  T
C919        C920   1.207       .  T
C925        C926   1.402       .  A
C925        C930   1.403       .  A
C925        C933   1.446       .  S
C926        C927   1.399       .  A
C926        H935   1.083       .  S
C927        C928   1.400       .  A
C927        H936   1.084       .  S
C928        C929   1.405       .  A
C928        C931   1.447       .  S
C929        C930   1.404       .  A
C929        H937   1.083       .  S
C930        H938   1.083       .  S
C931        C932   1.210       .  T
C933        C934   1.210   1_655  T
C939        C940   1.403       .  A
C939        C944   1.403       .  A
C939        C947   1.448       .  S
C940        C941   1.401       .  A
C940        H949   1.083       .  S
C941        C942   1.401       .  A
C941        H950   1.084       .  S
C942        C943   1.405       .  A
C942        C945   1.449       .  S
C943        C944   1.404       .  A
C943        H951   1.083       .  S
C944        H952   1.083       .  S
C945        C946   1.212       .  T
C947        C948   1.211       .  T
C953        C954   1.403       .  A
C953        C958   1.403       .  A
C953        C961   1.448       .  S
C954        C955   1.400       .  A
C954        H963   1.084       .  S
C955        C956   1.401       .  A
C955        H964   1.083       .  S
C956        C957   1.404       .  A
C956        C959   1.449       .  S
C957        C958   1.405       .  A
C957        H965   1.083       .  S
C958        H966   1.083       .  S
C959        C960   1.211       .  T
C961        C962   1.211       .  T
C967        C968   1.403       .  A
C967        C972   1.402       .  A
C967        C975   1.448       .  S
C968        C969   1.406       .  A
C968        H977   1.083       .  S
C969        C970   1.406       .  A
C969        H978   1.083       .  S
C970        C971   1.400       .  A
C970        C973   1.449       .  S
C971        C972   1.399       .  A
C971        H979   1.083       .  S
C972        H980   1.084       .  S
C973        C974   1.212       .  T
C975        C976   1.211   1_655  T
C981        C982   1.401       .  A
C981        C986   1.405       .  A
C981        C989   1.448       .  S
C982        C983   1.400       .  A
C982        H991   1.083       .  S
C983        C984   1.403       .  A
C983        H992   1.084       .  S
C984        C985   1.402       .  A
C984        C987   1.447       .  S
C985        C986   1.404       .  A
C985        H993   1.083       .  S
C986        H994   1.083       .  S
C987        C988   1.210       .  T
C989        C990   1.211       .  T
C995        C996   1.403       .  A
C995       C1000   1.401       .  A
C995       C1003   1.444       .  S
C996        C997   1.401       .  A
C996       H1005   1.084       .  S
C997        C998   1.402       .  A
C997       H1006   1.082       .  S
C998        C999   1.402       .  A
C998       C1001   1.444       .  S
C999       C1000   1.400       .  A
C999       H1007   1.084       .  S
C1000      H1008   1.083       .  S
C1001      C1002   1.209       .  T
C1003      C1004   1.209       .  T
C1009      C1010   1.399       .  A
C1009      C1014   1.404       .  A
C1009      C1017   1.443       .  S
C1010      C1011   1.397       .  A
C1010      H1019   1.084       .  S
C1011      C1012   1.401       .  A
C1011      H1020   1.084       .  S
C1012      C1013   1.402       .  A
C1012      C1015   1.442       .  S
C1013      C1014   1.403       .  A
C1013      H1021   1.083       .  S
C1014      H1022   1.083       .  S
C1015      C1016   1.207       .  T
C1017      C1018   1.208       .  T
C1023      C1024   1.402       .  A
C1023      C1028   1.402       .  A
C1023      C1031   1.444       .  S
C1024      C1025   1.399       .  A
C1024      H1033   1.083       .  S
C1025      C1026   1.402       .  A
C1025      H1034   1.083       .  S
C1026      C1027   1.403       .  A
C1026      C1029   1.445       .  S
C1027      C1028   1.402       .  A
C1027      H1035   1.083       .  S
C1028      H1036   1.083       .  S
C1029      C1030   1.209       .  T
C1031      C1032   1.208       .  T
C1037      C1038   1.403       .  A
C1037      C1042   1.402       .  A
C1037      C1045   1.448       .  S
C1038      C1039   1.405       .  A
C1038      H1047   1.083       .  S
C1039      C1040   1.405       .  A
C1039      H1048   1.083       .  S
C1040      C1041   1.401       .  A
C1040      C1043   1.449       .  S
C1041      C1042   1.399       .  A
C1041      H1049   1.083       .  S
C1042      H1050   1.084       .  S
C1043      C1044   1.211       .  T
C1045      C1046   1.211       .  T
C1051      C1052   1.403       .  A
C1051      C1056   1.403       .  A
C1051      C1059   1.450       .  S
C1052      C1053   1.405       .  A
C1052      H1061   1.083       .  S
C1053      C1054   1.405       .  A
C1053      H1062   1.083       .  S
C1054      C1055   1.401       .  A
C1054      C1057   1.451       .  S
C1055      C1056   1.401       .  A
C1055      H1063   1.083       .  S
C1056      H1064   1.083       .  S
C1057      C1058   1.213       .  T
C1059      C1060   1.212       .  T
C1065      C1066   1.403       .  A
C1065      C1070   1.402       .  A
C1065      C1073   1.448       .  S
C1066      C1067   1.402       .  A
C1066      H1075   1.083       .  S
C1067      C1068   1.402       .  A
C1067      H1076   1.081       .  S
C1068      C1069   1.403       .  A
C1068      C1071   1.448       .  S
C1069      C1070   1.402       .  A
C1069      H1077   1.083       .  S
C1070      H1078   1.084       .  S
C1071      C1072   1.211       .  T
C1073      C1074   1.211       .  T
C1079      C1080   1.404       .  A
C1079      C1084   1.402       .  A
C1079      C1087   1.449       .  S
C1080      C1081   1.404       .  A
C1080      H1089   1.083       .  S
C1081      C1082   1.403       .  A
C1081      H1090   1.083       .  S
C1082      C1083   1.403       .  A
C1082      C1085   1.448       .  S
C1083      C1084   1.401       .  A
C1083      H1091   1.084       .  S
C1084      H1092   1.083       .  S
C1085      C1086   1.211       .  T
C1087      C1088   1.211       .  T
C1093      C1094   1.402       .  A
C1093      C1098   1.404       .  A
C1093      C1101   1.450       .  S
C1094      C1095   1.402       .  A
C1094      H1103   1.084       .  S
C1095      C1096   1.403       .  A
C1095      H1104   1.083       .  S
C1096      C1097   1.403       .  A
C1096      C1099   1.450       .  S
C1097      C1098   1.404       .  A
C1097      H1105   1.083       .  S
C1098      H1106   1.083       .  S
C1099      C1100   1.212       .  T
C1101      C1102   1.212       .  T
C1107      C1108   1.406       .  A
C1107      C1112   1.401       .  A
C1107      C1115   1.452       .  S
C1108      C1109   1.406       .  A
C1108      H1117   1.083       .  S
C1109      C1110   1.403       .  A
C1109      H1118   1.083       .  S
C1110      C1111   1.403       .  A
C1110      C1113   1.451       .  S
C1111      C1112   1.401       .  A
C1111      H1119   1.084       .  S
C1112      H1120   1.083       .  S
C1113      C1114   1.213       .  T
C1115      C1116   1.213       .  T
C1121      C1122   1.404       .  A
C1121      C1126   1.401       .  A
C1121      C1129   1.446       .  S
C1122      C1123   1.402       .  A
C1122      H1131   1.084       .  S
C1123      C1124   1.402       .  A
C1123      H1132   1.083       .  S
C1124      C1125   1.402       .  A
C1124      C1127   1.445       .  S
C1125      C1126   1.400       .  A
C1125      H1133   1.084       .  S
C1126      H1134   1.083       .  S
C1127      C1128   1.209       .  T
C1129      C1130   1.210       .  T
C1135      C1136   1.402       .  A
C1135      C1140   1.402       .  A
C1135      C1143   1.444       .  S
C1136      C1137   1.399       .  A
C1136      H1145   1.084       .  S
C1137      C1138   1.401       .  A
C1137      H1146   1.083       .  S
C1138      C1139   1.403       .  A
C1138      C1141   1.445       .  S
C1139      C1140   1.402       .  A
C1139      H1147   1.083       .  S
C1140      H1148   1.083       .  S
C1141      C1142   1.209       .  T
C1143      C1144   1.209       .  T
C1149      C1150   1.404       .  A
C1149      C1154   1.400       .  A
C1149      C1157   1.443       .  S
C1150      C1151   1.402       .  A
C1150      H1159   1.083       .  S
C1151      C1152   1.401       .  A
C1151      H1160   1.083       .  S
C1152      C1153   1.402       .  A
C1152      C1155   1.442       .  S
C1153      C1154   1.398       .  A
C1153      H1161   1.084       .  S
C1154      H1162   1.083       .  S
C1155      C1156   1.207       .  T
C1157      C1158   1.208       .  T
C1163      C1164   1.401       .  A
C1163      C1168   1.402       .  A
C1163      C1171   1.442       .  S
C1164      C1165   1.398       .  A
C1164      H1173   1.084       .  S
C1165      C1166   1.402       .  A
C1165      H1174   1.084       .  S
C1166      C1167   1.401       .  A
C1166      C1169   1.441       .  S
C1167      C1168   1.401       .  A
C1167      H1175   1.083       .  S
C1168      H1176   1.083       .  S
C1169      C1170   1.207       .  T
C1171      C1172   1.207       .  T
