geometry optimzed in LAMMPS
_audit_creation_date              2020-12-01 
_audit_creation_method            'lammps2cif' 
_symmetry_space_group_name_H-M    'P1' 
_symmetry_Int_Tables_number       1 
_symmetry_cell_setting            triclinic 
loop_ 
_symmetry_equiv_pos_as_xyz 
  x,y,z 
_cell_length_a                    72.3281297 
_cell_length_b                    72.26754133476933 
_cell_length_c                    72.45434864325057 
_cell_angle_alpha                 89.44927639248839 
_cell_angle_beta                  90.17993846480046 
_cell_angle_gamma                 90.18854156535748 
loop_ 
_atom_site_label 
_atom_site_type_symbol 
_atom_site_fract_x 
_atom_site_fract_y 
_atom_site_fract_z 
_atom_site_charge 
N1          N  0.78470026  0.20086756  0.44528819    -0.03200
C2          C  0.78571127  0.18668772  0.43271830    -0.00600
C3          C  0.79097308  0.17043180  0.44139090    -0.23400
C4          C  0.79411978  0.17438012  0.45945532    -0.23700
C5          C  0.79021873  0.19288796  0.46177727    -0.00700
H6          H  0.79324566  0.15721536  0.43493220     0.13100
H7          H  0.79930143  0.16482827  0.46980751     0.13200
N8          N  0.76382820  0.27752362  0.44938604    -0.03200
C9          C  0.76727460  0.29315582  0.43873922    -0.00600
C10         C  0.76970422  0.30833907  0.44995173    -0.23400
C11         C  0.76808292  0.30241549  0.46774459    -0.23700
C12         C  0.76344796  0.28390011  0.46725596    -0.00700
H13         H  0.77152754  0.32259887  0.44556836     0.13100
H14         H  0.76829517  0.31118610  0.47979303     0.13200
N15         N  0.73345369  0.24666914  0.54905191    -0.03200
C16         C  0.71760744  0.24415893  0.55943266    -0.00600
C17         C  0.70211669  0.24615664  0.54837407    -0.23400
C18         C  0.70801482  0.24961062  0.53087897    -0.23700
C19         C  0.72703726  0.25066029  0.53153811    -0.00700
H20         H  0.68782009  0.24590847  0.55277062     0.13100
H21         H  0.69924002  0.25266492  0.51908372     0.13200
N22         N  0.80865329  0.22142314  0.55102220    -0.03200
C23         C  0.82311658  0.22024799  0.56340069    -0.00600
C24         C  0.83888503  0.21417620  0.55467556    -0.23400
C25         C  0.83427558  0.21076279  0.53678760    -0.23700
C26         C  0.81589703  0.21541251  0.53454597    -0.00700
H27         H  0.85220590  0.21158846  0.56100507     0.13100
H28         H  0.84338734  0.20511635  0.52643646     0.13200
N29         N  0.72830987  0.23762017  0.94219195    -0.03200
C30         C  0.71919909  0.23045975  0.92722453    -0.00600
C31         C  0.71338685  0.21263259  0.93157318    -0.23400
C32         C  0.71800031  0.20920912  0.94971298    -0.23700
C33         C  0.72704266  0.22474673  0.95604690    -0.00700
H34         H  0.70501787  0.20371371  0.92299558     0.13100
H35         H  0.71378679  0.19729335  0.95786868     0.13200
N36         N  0.79276295  0.28320305  0.94433393    -0.03200
C37         C  0.80725699  0.28746236  0.93285873    -0.00600
C38         C  0.81883761  0.30012247  0.94128971    -0.23400
C39         C  0.81185258  0.30335270  0.95852380    -0.23700
C40         C  0.79594172  0.29288578  0.96014081    -0.00700
H41         H  0.83151349  0.30587148  0.93570264     0.13100
H42         H  0.81807049  0.31191005  0.96903489     0.13200
N43         N  0.73075319  0.22174232  0.05106614    -0.03200
C44         C  0.72475714  0.20798187  0.06294369    -0.00600
C45         C  0.71269275  0.19615346  0.05407964    -0.23400
C46         C  0.71147700  0.20195953  0.03620201    -0.23700
C47         C  0.72243819  0.21752797  0.03449767    -0.00700
H48         H  0.70628224  0.18388595  0.05985325     0.13100
H49         H  0.70395088  0.19508131  0.02528818     0.13200
N50         N  0.77228822  0.28985480  0.05156852    -0.03200
C51         C  0.78046680  0.30145683  0.06427799    -0.00600
C52         C  0.79266844  0.31344644  0.05571775    -0.23400
C53         C  0.79268273  0.30926057  0.03752615    -0.23700
C54         C  0.77989947  0.29524778  0.03500083    -0.00700
H55         H  0.80055498  0.32443102  0.06211269     0.13100
H56         H  0.80044940  0.31645246  0.02692087     0.13200
N57         N  0.79257033  0.94499346  0.24711370    -0.03200
C58         C  0.80724188  0.93305549  0.24815701    -0.00600
C59         C  0.82308357  0.94227982  0.25358553    -0.23400
C60         C  0.81828511  0.96014376  0.25668468    -0.23700
C61         C  0.79976183  0.96175819  0.25234365    -0.00700
H62         H  0.83647280  0.93621840  0.25640247     0.13100
H63         H  0.82728795  0.97080243  0.26206602     0.13200
N64         N  0.72061802  0.94377391  0.21292063    -0.03200
C65         C  0.70580089  0.93181451  0.21162057    -0.00600
C66         C  0.69134864  0.94011179  0.20219046    -0.23400
C67         C  0.69669325  0.95769692  0.19797839    -0.23700
C68         C  0.71457113  0.95970005  0.20430663    -0.00700
H69         H  0.67809220  0.93398805  0.19892700     0.13100
H70         H  0.68847527  0.96795628  0.19077863     0.13200
N71         N  0.77051392  0.04931201  0.27183423    -0.03200
C72         C  0.77124411  0.06075116  0.28678663    -0.00600
C73         C  0.77602729  0.05088325  0.30253167    -0.23400
C74         C  0.77898982  0.03308223  0.29738663    -0.23700
C75         C  0.77531541  0.03225355  0.27873054    -0.00700
H76         H  0.77862008  0.05646462  0.31609173     0.13100
H77         H  0.78384818  0.02196611  0.30621990     0.13200
N78         N  0.73611214  0.05020757  0.20044059    -0.03200
C79         C  0.72653895  0.06432401  0.19215629    -0.00600
C80         C  0.71277691  0.05751662  0.18090639    -0.23400
C81         C  0.71417207  0.03873038  0.18149515    -0.23700
C82         C  0.72900140  0.03432531  0.19289787    -0.00700
H83         H  0.70369098  0.06544850  0.17200843     0.13100
H84         H  0.70558518  0.02924817  0.17377666     0.13200
O85         O  0.77983578  0.32014383  0.20440827    -0.74100
O86         O  0.78583852  0.32460407  0.15204765    -0.74100
O87         O  0.78250142  0.34877229  0.18119280    -0.74200
O88         O  0.78346339  0.29625192  0.17618301    -0.74200
O89         O  0.75272061  0.29606815  0.17324220    -0.74200
O90         O  0.75218523  0.34903091  0.17631577    -0.74100
O91         O  0.75551415  0.32320467  0.14832455    -0.74100
O92         O  0.74919507  0.32094394  0.20069259    -0.74200
Ni93       Ni  0.78401089  0.32255259  0.17847003     1.25400
Ni94       Ni  0.75131082  0.32243447  0.17442509     1.25400
C95         C  0.76348124  0.32011925  0.21111846     0.88100
C96         C  0.77176945  0.32275420  0.14141788     0.88000
C97         C  0.76710854  0.35745828  0.18096137     0.88000
C98         C  0.76820316  0.28755483  0.17405249     0.88200
O99         O  0.77678347  0.29470996  0.32561908    -0.74100
O100        O  0.76728432  0.34683559  0.32411456    -0.74100
O101        O  0.77216237  0.32014247  0.35157487    -0.74200
O102        O  0.77215726  0.32039629  0.29902539    -0.74200
O103        O  0.74173474  0.31528694  0.29877016    -0.74200
O104        O  0.74218696  0.31443884  0.35210477    -0.74100
O105        O  0.73697654  0.34142752  0.32449655    -0.74100
O106        O  0.74643184  0.28917862  0.32534568    -0.74200
Ni107      Ni  0.77309953  0.32084376  0.32521132     1.25400
Ni108      Ni  0.74068945  0.31498969  0.32531704     1.25400
C109        C  0.76314767  0.28340953  0.32540370     0.88100
C110        C  0.75061009  0.35268824  0.32260535     0.88000
C111        C  0.75769863  0.31569052  0.36072162     0.88000
C112        C  0.75702939  0.31797303  0.29022128     0.88200
O113        O  0.73967602  0.17826137  0.20043621    -0.74100
O114        O  0.72669357  0.18060708  0.14949893    -0.74100
O115        O  0.72712745  0.15334325  0.17641173    -0.74200
O116        O  0.74034066  0.20501531  0.17403748    -0.74200
O117        O  0.76937527  0.19741054  0.16707935    -0.74200
O118        O  0.75594393  0.14632951  0.16837069    -0.74100
O119        O  0.75563950  0.17442046  0.14161868    -0.74100
O120        O  0.76860147  0.17074079  0.19339317    -0.74200
Ni121      Ni  0.73240386  0.17950183  0.17524656     1.25400
Ni122      Ni  0.76336283  0.17178889  0.16722447     1.25400
C123        C  0.75613256  0.17430525  0.20544916     0.88100
C124        C  0.73920235  0.17967010  0.13714919     0.88000
C125        C  0.73990656  0.14133048  0.17398454     0.88000
C126        C  0.75715525  0.20956306  0.17046867     0.88200
O127        O  0.75832158  0.19528474  0.32179771    -0.74100
O128        O  0.76045227  0.14275402  0.31918201    -0.74100
O129        O  0.76263492  0.16839764  0.34695641    -0.74200
O130        O  0.75624996  0.17022099  0.29451148    -0.74200
O131        O  0.78676289  0.17293774  0.29087411    -0.74200
O132        O  0.79292784  0.16886370  0.34359009    -0.74100
O133        O  0.79050454  0.14432180  0.31384040    -0.74100
O134        O  0.78901285  0.19693835  0.31950498    -0.74200
Ni135      Ni  0.75838192  0.16900705  0.32083665     1.25400
Ni136      Ni  0.79096433  0.17069385  0.31697965     1.25400
C137        C  0.77327940  0.20474370  0.32138412     0.88100
C138        C  0.77531238  0.13513746  0.31362342     0.88000
C139        C  0.77874198  0.16966598  0.35416924     0.88000
C140        C  0.77042100  0.17197121  0.28408016     0.88200
N141        N  0.76712322  0.44531469  0.21874373    -0.03200
C142        C  0.76626465  0.43374955  0.20382939    -0.00600
C143        C  0.76931607  0.44360725  0.18765773    -0.23400
C144        C  0.77305214  0.46138125  0.19239717    -0.23700
C145        C  0.77135873  0.46237165  0.21131167    -0.00700
H146        H  0.77038736  0.43800327  0.17390503     0.13100
H147        H  0.77715365  0.47239625  0.18303271     0.13200
N148        N  0.74320200  0.44408247  0.29437013    -0.03200
C149        C  0.73600519  0.42982639  0.30483176    -0.00600
C150        C  0.72426282  0.43641279  0.31808467    -0.23400
C151        C  0.72455174  0.45515900  0.31658305    -0.23700
C152        C  0.73697894  0.45999259  0.30275652    -0.00700
H153        H  0.71697793  0.42838027  0.32845279     0.13100
H154        H  0.71640684  0.46432476  0.32496763     0.13200
N155        N  0.79384253  0.54969658  0.24019642    -0.03200
C156        C  0.80873540  0.56131338  0.23841864    -0.00600
C157        C  0.82393826  0.55184749  0.23199977    -0.23400
C158        C  0.81845149  0.53407844  0.22910959    -0.23700
C159        C  0.80018347  0.53283825  0.23446442    -0.00700
H160        H  0.83728560  0.55768602  0.22844664     0.13100
H161        H  0.82680017  0.52322647  0.22325467     0.13200
N162        N  0.72413322  0.55034833  0.27763670    -0.03200
C163        C  0.70868568  0.56147590  0.27901073    -0.00600
C164        C  0.69424895  0.55157714  0.28680725    -0.23400
C165        C  0.70025512  0.53401299  0.28990677    -0.23700
C166        C  0.71854098  0.53347108  0.28468778    -0.00700
H167        H  0.68065943  0.55675926  0.29017751     0.13100
H168        H  0.69237902  0.52293725  0.29630404     0.13200
O169        O  0.71069202  0.81816647  0.22349797    -0.74100
O170        O  0.65860635  0.81773448  0.21689440    -0.74100
O171        O  0.68612021  0.84415000  0.21485507    -0.74200
O172        O  0.68396907  0.79209601  0.22590722    -0.74200
O173        O  0.68018013  0.79837619  0.25574569    -0.74200
O174        O  0.68235017  0.85014556  0.24468679    -0.74100
O175        O  0.65446516  0.82336670  0.24645793    -0.74100
O176        O  0.70721429  0.82394258  0.25339760    -0.74200
Ni177      Ni  0.68484293  0.81789134  0.21921847     1.25400
Ni178      Ni  0.68077139  0.82433197  0.25110800     1.25400
C179        C  0.71762581  0.82102640  0.23943923     0.88100
C180        C  0.64775463  0.81892934  0.23067252     0.88000
C181        C  0.68613871  0.85562103  0.22824748     0.88000
C182        C  0.68212912  0.78675806  0.24273509     0.88200
O183        O  0.83714554  0.69742111  0.25707752    -0.74100
O184        O  0.83790014  0.64518241  0.25014815    -0.74100
O185        O  0.86201147  0.67405066  0.24280744    -0.74200
O186        O  0.81340387  0.66911394  0.26403498    -0.74200
O187        O  0.80118990  0.67359620  0.23604767    -0.74200
O188        O  0.84945609  0.67684715  0.21482682    -0.74100
O189        O  0.82434239  0.64880612  0.22281679    -0.74100
O190        O  0.82524071  0.70115441  0.22878515    -0.74200
Ni191      Ni  0.83818964  0.67124853  0.25447676     1.25400
Ni192      Ni  0.82476905  0.67517910  0.22456065     1.25400
C193        C  0.83103219  0.70777803  0.24405614     0.88100
C194        C  0.82925727  0.63837437  0.23633858     0.88000
C195        C  0.86367032  0.67728778  0.22542455     0.88000
C196        C  0.79930148  0.67036257  0.25332459     0.88200
O197        O  0.71294575  0.67548644  0.28083408    -0.74100
O198        O  0.65999482  0.67754741  0.28038795    -0.74100
O199        O  0.68657466  0.64989776  0.28488424    -0.74200
O200        O  0.68703214  0.70257387  0.27594513    -0.74200
O201        O  0.68694085  0.69762878  0.24562919    -0.74200
O202        O  0.68598354  0.64542155  0.25451808    -0.74100
O203        O  0.65961682  0.67325575  0.25001607    -0.74100
O204        O  0.71262798  0.67086693  0.25053162    -0.74200
Ni205      Ni  0.68652988  0.67648692  0.28161812     1.25400
Ni206      Ni  0.68620141  0.67150052  0.24913766     1.25400
C207        C  0.72151149  0.67225468  0.26580662     0.88100
C208        C  0.65125771  0.67758932  0.26495955     0.88000
C209        C  0.68783530  0.63906360  0.27099518     0.88000
C210        C  0.68663852  0.70869672  0.25925666     0.88200
O211        O  0.80433843  0.82086706  0.26138631    -0.74100
O212        O  0.85712528  0.82062579  0.26607465    -0.74100
O213        O  0.82963381  0.84735152  0.26391833    -0.74200
O214        O  0.83054978  0.79466047  0.26350232    -0.74200
O215        O  0.83217207  0.79544823  0.23270811    -0.74200
O216        O  0.83409581  0.84832892  0.23375634    -0.74100
O217        O  0.85981697  0.81983677  0.23558006    -0.74100
O218        O  0.80718928  0.82310392  0.23080504    -0.74200
Ni219      Ni  0.83049890  0.82096477  0.26483905     1.25400
Ni220      Ni  0.83355064  0.82182473  0.23211851     1.25400
C221        C  0.79712629  0.82217718  0.24528560     0.88100
C222        C  0.86709666  0.81829599  0.25166651     0.88000
C223        C  0.82978420  0.85651544  0.24873094     0.88000
C224        C  0.83109444  0.78646949  0.24796876     0.88200
N225        N  0.45047198  0.76539362  0.21488791    -0.03200
C226        C  0.43933439  0.76821634  0.19964826    -0.00600
C227        C  0.44754469  0.78044414  0.18738622    -0.23400
C228        C  0.46433481  0.78502730  0.19448415    -0.23700
C229        C  0.46594012  0.77582673  0.21115132    -0.00700
H230        H  0.44193038  0.78525787  0.17432279     0.13100
H231        H  0.47464509  0.79369806  0.18791652     0.13200
N232        N  0.45311109  0.72164514  0.28150716    -0.03200
C233        C  0.44053773  0.71350823  0.29332936    -0.00600
C234        C  0.44908163  0.70000008  0.30389508    -0.23400
C235        C  0.46708845  0.69930937  0.29845401    -0.23700
C236        C  0.46954176  0.71293045  0.28514678    -0.00700
H237        H  0.44291859  0.69182383  0.31483909     0.13100
H238        H  0.47773983  0.69077862  0.30466544     0.13200
N239        N  0.56236810  0.71339772  0.26817373    -0.03200
C240        C  0.57466196  0.69904267  0.27071115    -0.00600
C241        C  0.56656755  0.68485992  0.28077118    -0.23400
C242        C  0.54882835  0.68989929  0.28422455    -0.23700
C243        C  0.54647305  0.70730099  0.27664847    -0.00700
H244        H  0.57295944  0.67193456  0.28496947     0.13100
H245        H  0.53854942  0.68164444  0.29134783     0.13200
N246        N  0.55839271  0.78309754  0.22926239    -0.03200
C247        C  0.57045034  0.79621564  0.22235109    -0.00600
C248        C  0.56112941  0.80901049  0.21159073    -0.23400
C249        C  0.54306835  0.80378013  0.21125767    -0.23700
C250        C  0.54144829  0.78825210  0.22242162    -0.00700
H251        H  0.56695387  0.82107795  0.20475902     0.13100
H252        H  0.53198731  0.81106941  0.20428867     0.13200
N253        N  0.94891176  0.71386705  0.20493560    -0.03200
C254        C  0.93625938  0.70088402  0.19919270    -0.00600
C255        C  0.94393198  0.68975739  0.18586325    -0.23400
C256        C  0.96181942  0.69542709  0.18349713    -0.23700
C257        C  0.96472378  0.71012494  0.19520278    -0.00700
H258        H  0.93745774  0.67798989  0.17932541     0.13100
H259        H  0.97197341  0.68892726  0.17480563     0.13200
N260        N  0.95401749  0.77860717  0.24913811    -0.03200
C261        C  0.94323841  0.79167666  0.25769629    -0.00600
C262        C  0.95365805  0.80163556  0.27014023    -0.23400
C263        C  0.97113957  0.79467283  0.26971596    -0.23700
C264        C  0.97129551  0.78083072  0.25668930    -0.00700
H265        H  0.94900958  0.81302980  0.27847941     0.13100
H266        H  0.98290629  0.79991062  0.27732180     0.13200
N267        N  0.05929153  0.71461632  0.19898961    -0.03200
C268        C  0.07109704  0.70367535  0.18901467    -0.00600
C269        C  0.06115512  0.69102163  0.17879907    -0.23400
C270        C  0.04286124  0.69399027  0.18236441    -0.23700
C271        C  0.04187155  0.70858386  0.19450592    -0.00700
H272        H  0.06663025  0.68134142  0.16895418     0.13100
H273        H  0.03133859  0.68699244  0.17587555     0.13200
N274        N  0.06248685  0.76138379  0.26230763    -0.03200
C275        C  0.07395061  0.76572231  0.27685525    -0.00600
C276        C  0.06579674  0.77879679  0.28795305    -0.23400
C277        C  0.04875930  0.78244241  0.28072216    -0.23700
C278        C  0.04690256  0.77176691  0.26514963    -0.00700
H279        H  0.07156342  0.78474961  0.30034345     0.13100
H280        H  0.03845902  0.79143823  0.28657447     0.13200
N281        N  0.26332280  0.76582779  0.94203498    -0.03200
C282        C  0.26359590  0.77955815  0.92872980    -0.00600
C283        C  0.26343160  0.79677069  0.93687682    -0.23400
C284        C  0.26380795  0.79400303  0.95547184    -0.23700
C285        C  0.26349870  0.77513520  0.95855322    -0.00700
H286        H  0.26428614  0.81004495  0.92990312     0.13100
H287        H  0.26463361  0.80470097  0.96579107     0.13200
N288        N  0.25169437  0.68708781  0.94315715    -0.03200
C289        C  0.24740164  0.67533522  0.92896039    -0.00600
C290        C  0.23853516  0.65977841  0.93558908    -0.23400
C291        C  0.23772931  0.66138552  0.95427221    -0.23700
C292        C  0.24652028  0.67776852  0.95905250    -0.00700
H293        H  0.23394243  0.64801098  0.92766719     0.13100
H294        H  0.23147393  0.65131927  0.96348377     0.13200
N295        N  0.28001767  0.75427885  0.05000778    -0.03200
C296        C  0.28954175  0.76239099  0.06427383    -0.00600
C297        C  0.29249176  0.78093001  0.05994503    -0.23400
C298        C  0.28568325  0.78411659  0.04251867    -0.23700
C299        C  0.27816123  0.76767830  0.03662544    -0.00700
H300        H  0.30024026  0.79078250  0.06805346     0.13100
H301        H  0.28687379  0.79687212  0.03460992     0.13200
N302        N  0.22392055  0.69830962  0.04737795    -0.03200
C303        C  0.20930304  0.69358976  0.05864257    -0.00600
C304        C  0.19825263  0.68057702  0.05011614    -0.23400
C305        C  0.20565261  0.67739900  0.03310856    -0.23700
C306        C  0.22137616  0.68818920  0.03163488    -0.00700
H307        H  0.18597534  0.67401215  0.05576614     0.13100
H308        H  0.20029223  0.66792308  0.02290813     0.13200
O309        O  0.17992742  0.74163755  0.18924134    -0.74100
O310        O  0.18278905  0.72781866  0.13828759    -0.74100
O311        O  0.15512510  0.72883301  0.16483615    -0.74200
O312        O  0.20668412  0.74063674  0.16371733    -0.74200
O313        O  0.21333073  0.71164173  0.17194723    -0.74200
O314        O  0.16147509  0.69988784  0.17260182    -0.74100
O315        O  0.18934062  0.69884308  0.14664848    -0.74100
O316        O  0.18619255  0.71249440  0.19753546    -0.74200
Ni317      Ni  0.18077025  0.73568387  0.16359129     1.25400
Ni318      Ni  0.18772071  0.70463606  0.17240933     1.25400
C319        C  0.18290947  0.72934350  0.20170408     0.88100
C320        C  0.18787990  0.71138333  0.13411159     0.88000
C321        C  0.14955885  0.71274248  0.16996094     0.88000
C322        C  0.21851716  0.72817015  0.16793174     0.88200
O323        O  0.33344695  0.73511946  0.19445404    -0.74100
O324        O  0.33209039  0.73383980  0.14167493    -0.74100
O325        O  0.35955258  0.73817984  0.16877713    -0.74200
O326        O  0.30688105  0.73152068  0.16883944    -0.74200
O327        O  0.30300601  0.76212293  0.16779317    -0.74200
O328        O  0.35556984  0.76872080  0.16781489    -0.74100
O329        O  0.32823930  0.76441088  0.14062373    -0.74100
O330        O  0.32955398  0.76567859  0.19375355    -0.74200
Ni331      Ni  0.33325362  0.73360172  0.16825924     1.25400
Ni332      Ni  0.32909219  0.76634729  0.16727001     1.25400
C333        C  0.33188800  0.75052512  0.20279892     0.88100
C334        C  0.32811127  0.74861423  0.13259727     0.88000
C335        C  0.36597667  0.75465116  0.17064568     0.88000
C336        C  0.29633351  0.74574192  0.16870457     0.88200
O337        O  0.20956692  0.76799747  0.31201432    -0.74100
O338        O  0.15704917  0.77118996  0.30683618    -0.74100
O339        O  0.18206695  0.77527610  0.33571269    -0.74200
O340        O  0.18512961  0.76389246  0.28419833    -0.74200
O341        O  0.18228885  0.73385227  0.29088722    -0.74200
O342        O  0.18004415  0.74540132  0.34245773    -0.74100
O343        O  0.15430372  0.74119830  0.31351353    -0.74100
O344        O  0.20705726  0.73780288  0.31839312    -0.74200
Ni345      Ni  0.18342831  0.77068296  0.30961331     1.25400
Ni346      Ni  0.18068849  0.73853363  0.31675516     1.25400
C347        C  0.21691008  0.75226129  0.31543791     0.88100
C348        C  0.14734285  0.75632757  0.30722096     0.88000
C349        C  0.18228770  0.76217450  0.34776018     0.88000
C350        C  0.18394408  0.74702229  0.27906400     0.88200
O351        O  0.30089964  0.72801977  0.31161095    -0.74100
O352        O  0.35189505  0.71579775  0.31422319    -0.74100
O353        O  0.32304565  0.71701094  0.33895649    -0.74200
O354        O  0.32881808  0.72697162  0.28731036    -0.74200
O355        O  0.33544664  0.75651969  0.29322414    -0.74200
O356        O  0.32985615  0.74640014  0.34503818    -0.74100
O357        O  0.35899309  0.74496123  0.31972091    -0.74100
O358        O  0.30742285  0.75754359  0.31750441    -0.74200
Ni359      Ni  0.32605266  0.72089953  0.31290561     1.25400
Ni360      Ni  0.33333077  0.75238136  0.31924847     1.25400
C361        C  0.29571734  0.74469256  0.31404381     0.88100
C362        C  0.36414227  0.72843765  0.31592855     0.88000
C363        C  0.32392689  0.73045050  0.35032856     0.88000
C364        C  0.33266274  0.74341903  0.28179542     0.88200
N365        N  0.23264377  0.77020485  0.54722345    -0.03200
C366        C  0.22873686  0.78349315  0.56020318    -0.00600
C367        C  0.21622563  0.79608933  0.55304936    -0.23400
C368        C  0.21266346  0.79119115  0.53522861    -0.23700
C369        C  0.22267008  0.77538551  0.53174263    -0.00700
H370        H  0.21089220  0.80817266  0.55989272     0.13100
H371        H  0.20412684  0.79879048  0.52550745     0.13200
N372        N  0.27552822  0.70345557  0.54526414    -0.03200
C373        C  0.28449798  0.69142417  0.55713494    -0.00600
C374        C  0.29738766  0.68118666  0.54763652    -0.23400
C375        C  0.29697810  0.68707104  0.52975690    -0.23700
C376        C  0.28325806  0.70025699  0.52835299    -0.00700
H377        H  0.30599650  0.67021881  0.55316324     0.13100
H378        H  0.30486037  0.68126442  0.51852741     0.13200
N379        N  0.28398733  0.71852861  0.43634643    -0.03200
C380        C  0.29819689  0.71425151  0.42451798    -0.00600
C381        C  0.31008445  0.70165834  0.43267227    -0.23400
C382        C  0.30385361  0.69842592  0.45010183    -0.23700
C383        C  0.28790412  0.70860824  0.45216168    -0.00700
H384        H  0.32247890  0.69594220  0.42670749     0.13100
H385        H  0.31049445  0.68980543  0.46044092     0.13200
N386        N  0.21916109  0.76455560  0.43666420    -0.03200
C387        C  0.20795667  0.77368630  0.42401495    -0.00600
C388        C  0.19797608  0.78726857  0.43277925    -0.23400
C389        C  0.20286184  0.78685978  0.45098202    -0.23700
C390        C  0.21553334  0.77277704  0.45332686    -0.00700
H391        H  0.18756794  0.79612007  0.42661474     0.13100
H392        H  0.19689318  0.79522372  0.46172748     0.13200
O393        O  0.24978930  0.78032519  0.67442873    -0.74100
O394        O  0.24085509  0.83266142  0.67256329    -0.74100
O395        O  0.23843885  0.80364966  0.64758909    -0.74200
O396        O  0.25220175  0.80847395  0.69872208    -0.74200
O397        O  0.28165074  0.81285088  0.69066808    -0.74200
O398        O  0.26761465  0.80895163  0.63942632    -0.74100
O399        O  0.27011691  0.83759976  0.66526090    -0.74100
O400        O  0.27902282  0.78529014  0.66607530    -0.74200
Ni401      Ni  0.24424551  0.80621937  0.67349883     1.25400
Ni402      Ni  0.27557240  0.81148189  0.66489431     1.25400
C403        C  0.26592999  0.77422141  0.67067567     0.88100
C404        C  0.25439154  0.84394137  0.67034861     0.88000
C405        C  0.25101814  0.80417551  0.63513294     0.88000
C406        C  0.26920805  0.81103090  0.70308080     0.88200
O407        O  0.28375381  0.65120890  0.79329550    -0.74100
O408        O  0.27708671  0.65532636  0.84559042    -0.74100
O409        O  0.27621227  0.62660725  0.82011588    -0.74200
O410        O  0.28452169  0.67898244  0.81787543    -0.74200
O411        O  0.25415946  0.68338289  0.81441090    -0.74200
O412        O  0.24640655  0.63109678  0.81443438    -0.74100
O413        O  0.24682243  0.65863759  0.84137532    -0.74100
O414        O  0.25371147  0.65666265  0.78892308    -0.74200
Ni415      Ni  0.28143730  0.65274651  0.81953323     1.25400
Ni416      Ni  0.24915351  0.65749153  0.81483621     1.25400
C417        C  0.26987638  0.65360041  0.78253865     0.88100
C418        C  0.26103659  0.65900482  0.85204944     0.88000
C419        C  0.26036828  0.62025154  0.81524327     0.88000
C420        C  0.27064494  0.68970943  0.81559977     0.88200
O421        O  0.29057334  0.77736018  0.81500505    -0.74100
O422        O  0.29019999  0.82987212  0.82014807    -0.74100
O423        O  0.28825118  0.79966800  0.84384111    -0.74200
O424        O  0.29241382  0.80659279  0.79139175    -0.74200
O425        O  0.26165638  0.80554135  0.78907812    -0.74200
O426        O  0.25773442  0.80162606  0.84179109    -0.74100
O427        O  0.25991605  0.83039475  0.81592705    -0.74100
O428        O  0.25971299  0.77737225  0.81397947    -0.74200
Ni429      Ni  0.29143878  0.80349752  0.81776830     1.25400
Ni430      Ni  0.25862658  0.80380830  0.81523726     1.25400
C431        C  0.27515643  0.76874074  0.81414071     0.88100
C432        C  0.27540155  0.83901283  0.81686830     0.88000
C433        C  0.27229900  0.79821917  0.85138047     0.88000
C434        C  0.27762375  0.80700742  0.78162063     0.88200
O435        O  0.26009386  0.65861067  0.69433385    -0.74100
O436        O  0.26214098  0.66373795  0.64145235    -0.74100
O437        O  0.25987651  0.63443376  0.66670117    -0.74200
O438        O  0.26155810  0.68699906  0.67002018    -0.74200
O439        O  0.29238414  0.68629044  0.67081740    -0.74200
O440        O  0.29042209  0.63289611  0.66777225    -0.74100
O441        O  0.29260767  0.66177022  0.64286389    -0.74100
O442        O  0.29087055  0.65745915  0.69523836    -0.74200
Ni443      Ni  0.25983538  0.66087173  0.66794743     1.25400
Ni444      Ni  0.29267197  0.65952964  0.66911238     1.25400
C445        C  0.27526506  0.65722722  0.70343463     0.88100
C446        C  0.27795647  0.66478928  0.63346242     0.88000
C447        C  0.27461737  0.62476408  0.66813101     0.88000
C448        C  0.27710436  0.69532389  0.67107629     0.88200
O449        O  0.83962716  0.22234549  0.70562721    -0.74100
O450        O  0.83984531  0.21432784  0.65311586    -0.74100
O451        O  0.86654407  0.21497036  0.68116511    -0.74200
O452        O  0.81407493  0.22113584  0.67844065    -0.74200
O453        O  0.81798509  0.25137974  0.67329349    -0.74200
O454        O  0.87080216  0.24520727  0.67654176    -0.74100
O455        O  0.84463738  0.24418308  0.64838399    -0.74100
O456        O  0.84391984  0.25227684  0.70028938    -0.74200
Ni457      Ni  0.84004593  0.21706488  0.67963509     1.25400
Ni458      Ni  0.84454151  0.24928469  0.67430747     1.25400
C459        C  0.84178068  0.23884434  0.71164916     0.88100
C460        C  0.84066562  0.22822940  0.64196141     0.88000
C461        C  0.87712159  0.22925214  0.68111652     0.88000
C462        C  0.80741608  0.23725120  0.67553783     0.88200
O463        O  0.71366786  0.26238796  0.82030156    -0.74100
O464        O  0.66058332  0.26342064  0.81948625    -0.74100
O465        O  0.68777542  0.26551098  0.84681122    -0.74200
O466        O  0.68709866  0.26063742  0.79409158    -0.74200
O467        O  0.68594233  0.22991382  0.79716380    -0.74200
O468        O  0.68742811  0.23476767  0.84976276    -0.74100
O469        O  0.66004031  0.23289826  0.82345218    -0.74100
O470        O  0.71298616  0.23163124  0.82297114    -0.74200
Ni471      Ni  0.68720359  0.26411266  0.82020903     1.25400
Ni472      Ni  0.68648044  0.23123883  0.82355406     1.25400
C473        C  0.72205412  0.24681201  0.82146519     0.88100
C474        C  0.65161554  0.24807287  0.81982566     0.88000
C475        C  0.68905019  0.25086336  0.85687254     0.88000
C476        C  0.68642958  0.24449936  0.78699729     0.88200
O477        O  0.69243182  0.25779606  0.69915941    -0.74100
O478        O  0.69498877  0.25831350  0.64616890    -0.74100
O479        O  0.66695325  0.25887895  0.67266489    -0.74200
O480        O  0.71990224  0.25715511  0.67374832    -0.74200
O481        O  0.71865088  0.22630506  0.67461538    -0.74200
O482        O  0.66581330  0.22824432  0.67115900    -0.74100
O483        O  0.69502498  0.22756711  0.64625015    -0.74100
O484        O  0.69028040  0.22699625  0.69893774    -0.74200
Ni485      Ni  0.69352874  0.25915315  0.67278141     1.25400
Ni486      Ni  0.69230301  0.22619727  0.67261484     1.25400
C487        C  0.69061003  0.24230236  0.70768951     0.88100
C488        C  0.69704906  0.24299296  0.63758612     0.88000
C489        C  0.65766241  0.24374965  0.67361045     0.88000
C490        C  0.72794179  0.24140410  0.67445068     0.88200
O491        O  0.81257729  0.23956134  0.82767690    -0.74100
O492        O  0.86507231  0.24808948  0.82885002    -0.74100
O493        O  0.83620016  0.24939477  0.85477970    -0.74200
O494        O  0.84025782  0.23891380  0.80271045    -0.74200
O495        O  0.83632345  0.26867479  0.79679469    -0.74200
O496        O  0.83190609  0.27917158  0.84786808    -0.74100
O497        O  0.86064928  0.27796218  0.82258791    -0.74100
O498        O  0.80816100  0.26936999  0.82101956    -0.74200
Ni499      Ni  0.83882790  0.24294529  0.82893350     1.25400
Ni500      Ni  0.83417379  0.27484463  0.82200554     1.25400
C501        C  0.80173978  0.25301177  0.82380228     0.88100
C502        C  0.87147851  0.26398374  0.82397218     0.88000
C503        C  0.83177283  0.26588027  0.85964553     0.88000
C504        C  0.83906944  0.25232390  0.79104331     0.88200
N505        N  0.23806656  0.42523386  0.75598549    -0.03200
C506        C  0.22791737  0.41002255  0.76151703    -0.00600
C507        C  0.22286388  0.41205102  0.77987374    -0.23400
C508        C  0.22845315  0.42921321  0.78538770    -0.23700
C509        C  0.23752922  0.43710209  0.77063455    -0.00700
H510        H  0.21436207  0.40264362  0.78792459     0.13100
H511        H  0.22566265  0.43554962  0.79855808     0.13200
N512        N  0.30728126  0.43380339  0.71908747    -0.03200
C513        C  0.32300011  0.42311989  0.71806966    -0.00600
C514        C  0.33753523  0.43362818  0.71142406    -0.23400
C515        C  0.33121058  0.45125208  0.70902431    -0.23700
C516        C  0.31255117  0.45116337  0.71312190    -0.00700
H517        H  0.35147533  0.42897373  0.70874994     0.13100
H518        H  0.33931170  0.46287929  0.70408012     0.13200
N519        N  0.26960694  0.53465066  0.70121523    -0.03200
C520        C  0.26435537  0.54591121  0.68654346    -0.00600
C521        C  0.25996545  0.53523510  0.67140345    -0.23400
C522        C  0.26229845  0.51721894  0.67634690    -0.23700
C523        C  0.26922773  0.51704045  0.69408857    -0.00700
H524        H  0.25685380  0.54010033  0.65757314     0.13100
H525        H  0.26155664  0.50557212  0.66705126     0.13200
N526        N  0.25620109  0.53093218  0.77953230    -0.03200
C527        C  0.25451605  0.54293855  0.79415725    -0.00600
C528        C  0.25075583  0.53327225  0.81025692    -0.23400
C529        C  0.24915785  0.51512975  0.80583852    -0.23700
C530        C  0.25269993  0.51372914  0.78721517    -0.00700
H531        H  0.24869115  0.53902783  0.82383438     0.13100
H532        H  0.24571059  0.50395176  0.81528179     0.13200
N533        N  0.24845473  0.93097029  0.71101922    -0.03200
C534        C  0.25008892  0.92114772  0.69474898    -0.00600
C535        C  0.24648697  0.93251847  0.67974995    -0.23400
C536        C  0.24310693  0.94969671  0.68622343    -0.23700
C537        C  0.24351346  0.94853937  0.70522138    -0.00700
H538        H  0.24590931  0.92853648  0.66537688     0.13100
H539        H  0.23935215  0.96165695  0.67790453     0.13200
N540        N  0.27882571  0.92959689  0.78421050    -0.03200
C541        C  0.28048620  0.91792367  0.79924831    -0.00600
C542        C  0.28810133  0.92711932  0.81405646    -0.23400
C543        C  0.29194476  0.94467359  0.80824435    -0.23700
C544        C  0.28601665  0.94621867  0.79015067    -0.00700
H545        H  0.29158669  0.92124665  0.82737904     0.13100
H546        H  0.29871780  0.95523306  0.81632069     0.13200
N547        N  0.22372116  0.03261262  0.74257469    -0.03200
C548        C  0.20894285  0.04415427  0.74610117    -0.00600
C549        C  0.19262066  0.03419561  0.74622559    -0.23400
C550        C  0.19691662  0.01619338  0.74354119    -0.23700
C551        C  0.21567247  0.01539530  0.74028701    -0.00700
H552        H  0.17877458  0.03959056  0.74785098     0.13100
H553        H  0.18706028  0.00493242  0.74255302     0.13200
N554        N  0.30215274  0.03449101  0.75638590    -0.03200
C555        C  0.31691841  0.04653204  0.75484894    -0.00600
C556        C  0.33332617  0.03699933  0.75710095    -0.23400
C557        C  0.32896608  0.01904702  0.76107214    -0.23700
C558        C  0.30994850  0.01756257  0.76047069    -0.00700
H559        H  0.34710014  0.04290584  0.75739223     0.13100
H560        H  0.33868425  0.00826963  0.76472399     0.13200
N561        N  0.95998057  0.26660860  0.78696773    -0.03200
C562        C  0.94807397  0.27280475  0.80036405    -0.00600
C563        C  0.95679347  0.28592461  0.81111888    -0.23400
C564        C  0.97454028  0.28758636  0.80492455    -0.23700
C565        C  0.97629826  0.27578135  0.79019371    -0.00700
H566        H  0.95093262  0.29315820  0.82270949     0.13100
H567        H  0.98526002  0.29615984  0.81085928     0.13200
N568        N  0.95780856  0.21370657  0.72857028    -0.03200
C569        C  0.94305765  0.20539302  0.71997455    -0.00600
C570        C  0.94701866  0.18686582  0.71729491    -0.23400
C571        C  0.96487113  0.18397647  0.72306717    -0.23700
C572        C  0.97135744  0.20060612  0.72971945    -0.00700
H573        H  0.93850793  0.17693935  0.71003796     0.13100
H574        H  0.97287467  0.17152182  0.72098350     0.13200
N575        N  0.06865660  0.26912380  0.76752329    -0.03200
C576        C  0.08283439  0.28127951  0.77129354    -0.00600
C577        C  0.07712295  0.29428023  0.78384399    -0.23400
C578        C  0.05908590  0.29038427  0.78795182    -0.23700
C579        C  0.05385591  0.27531290  0.77747764    -0.00700
H580        H  0.08509072  0.30588679  0.78891567     0.13100
H581        H  0.05016570  0.29871046  0.79643054     0.13200
N582        N  0.06597943  0.19659067  0.73539023    -0.03200
C583        C  0.07913456  0.18377145  0.73054490    -0.00600
C584        C  0.07153584  0.17136704  0.71818005    -0.23400
C585        C  0.05323618  0.17548092  0.71631237    -0.23700
C586        C  0.05002024  0.19099374  0.72671456    -0.00700
H587        H  0.07835862  0.15951482  0.71219250     0.13100
H588        H  0.04314997  0.16763511  0.70851557     0.13200
O589        O  0.21604732  0.15762890  0.76065676    -0.74100
O590        O  0.16304250  0.15989762  0.76307754    -0.74100
O591        O  0.18978913  0.13178143  0.76288602    -0.74200
O592        O  0.19067099  0.18489018  0.76028781    -0.74200
O593        O  0.19021613  0.18343075  0.72958972    -0.74200
O594        O  0.18712034  0.13068790  0.73235497    -0.74100
O595        O  0.16170901  0.15949554  0.73233997    -0.74100
O596        O  0.21463758  0.15553583  0.72999016    -0.74200
Ni597      Ni  0.18975206  0.15847482  0.76285419     1.25400
Ni598      Ni  0.18818750  0.15713289  0.73000517     1.25400
C599        C  0.22401732  0.15623031  0.74499427     0.88100
C600        C  0.15380147  0.16159342  0.74802163     0.88000
C601        C  0.19024126  0.12255129  0.74782854     0.88000
C602        C  0.19116455  0.19284617  0.74439883     0.88200
O603        O  0.19345183  0.28142154  0.75871544    -0.74100
O604        O  0.19288850  0.33463504  0.75738034    -0.74100
O605        O  0.16669392  0.30692710  0.76103902    -0.74200
O606        O  0.21884973  0.30847668  0.75603828    -0.74200
O607        O  0.21607765  0.30884674  0.72536541    -0.74200
O608        O  0.16301410  0.30464407  0.73070497    -0.74100
O609        O  0.18879841  0.33402191  0.72688919    -0.74100
O610        O  0.19124062  0.28116501  0.72802775    -0.74200
Ni611      Ni  0.19293026  0.30800530  0.75935572     1.25400
Ni612      Ni  0.18950712  0.30734894  0.72661462     1.25400
C613        C  0.19255634  0.27259729  0.74346100     0.88100
C614        C  0.19245691  0.34297501  0.74165489     0.88000
C615        C  0.15648952  0.30304793  0.74716671     0.88000
C616        C  0.22609695  0.30901131  0.74003639     0.88200
O617        O  0.33966927  0.28168364  0.72757002    -0.74100
O618        O  0.34042384  0.33413254  0.71939325    -0.74100
O619        O  0.36667653  0.30653366  0.72350216    -0.74200
O620        O  0.31405338  0.30839919  0.72370174    -0.74200
O621        O  0.31447139  0.31196524  0.75423678    -0.74200
O622        O  0.36751448  0.31210152  0.75350139    -0.74100
O623        O  0.34010682  0.33868609  0.74974555    -0.74100
O624        O  0.34098307  0.28598318  0.75800842    -0.74200
Ni625      Ni  0.34030163  0.30765255  0.72247256     1.25400
Ni626      Ni  0.34090196  0.31245232  0.75497384     1.25400
C627        C  0.34018980  0.27522676  0.74406415     0.88100
C628        C  0.33890547  0.34502244  0.73317274     0.88000
C629        C  0.37586845  0.30781469  0.73856246     0.88000
C630        C  0.30559029  0.31014379  0.73903823     0.88200
O631        O  0.33671594  0.18760409  0.76550646    -0.74100
O632        O  0.33653142  0.13451709  0.76815008    -0.74100
O633        O  0.36372207  0.16235182  0.76940456    -0.74200
O634        O  0.31072398  0.16046827  0.76427660    -0.74200
O635        O  0.31372470  0.15828903  0.73375550    -0.74200
O636        O  0.36645612  0.16185486  0.73888096    -0.74100
O637        O  0.34052755  0.13307666  0.73787160    -0.74100
O638        O  0.33892156  0.18622550  0.73485079    -0.74200
Ni639      Ni  0.33696912  0.16118302  0.76794254     1.25400
Ni640      Ni  0.34013329  0.15971702  0.73528130     1.25400
C641        C  0.33780313  0.19561998  0.74971266     0.88100
C642        C  0.33668897  0.12502694  0.75326894     0.88000
C643        C  0.37376717  0.16404051  0.75487652     0.88000
C644        C  0.30357108  0.15877996  0.74818129     0.88200
N645        N  0.56280221  0.23631058  0.78783458    -0.03200
C646        C  0.57282956  0.24280180  0.80267432    -0.00600
C647        C  0.56179322  0.24391633  0.81812468    -0.23400
C648        C  0.54457865  0.23817511  0.81318027    -0.23700
C649        C  0.54546722  0.23265494  0.79501303    -0.00700
H650        H  0.56607126  0.24760507  0.83195686     0.13100
H651        H  0.53286893  0.23679239  0.82235564     0.13200
N652        N  0.56856254  0.24753602  0.70972609    -0.03200
C653        C  0.58017846  0.24574866  0.69482897    -0.00600
C654        C  0.57027475  0.24787529  0.67857618    -0.23400
C655        C  0.55256684  0.25220288  0.68318672    -0.23700
C656        C  0.55162755  0.25181623  0.70219574    -0.00700
H657        H  0.57579243  0.24797361  0.66476244     0.13100
H658        H  0.54170961  0.25589636  0.67370780     0.13200
N659        N  0.46348156  0.19925616  0.76276079    -0.03200
C660        C  0.45231692  0.18372039  0.76122103    -0.00600
C661        C  0.46244763  0.16794948  0.76506164    -0.23400
C662        C  0.48013552  0.17325967  0.76859799    -0.23700
C663        C  0.48054681  0.19231850  0.76787901    -0.00700
H664        H  0.45733793  0.15384365  0.76554362     0.13100
H665        H  0.49143679  0.16413626  0.77228438     0.13200
N666        N  0.46538295  0.27436246  0.73608018    -0.03200
C667        C  0.45409306  0.28957542  0.73694836    -0.00600
C668        C  0.46358219  0.30536936  0.73173387    -0.23400
C669        C  0.48075088  0.30002097  0.72648646    -0.23700
C670        C  0.48199776  0.28117119  0.72959770    -0.00700
H671        H  0.45792248  0.31914533  0.73013330     0.13100
H672        H  0.49122215  0.30899874  0.72054832     0.13200
C673        C  0.46906998  0.25125468  0.76166089    -0.01500
C674        C  0.46184657  0.25607514  0.74414056     0.08200
C675        C  0.45114454  0.24265676  0.73490621    -0.01600
C676        C  0.45195230  0.22383369  0.74048741    -0.01600
C677        C  0.45962130  0.21869085  0.75789059     0.08300
C678        C  0.46617337  0.23329166  0.76919317    -0.01800
Br679      Br  0.47015049  0.22928804  0.79523777    -0.00400
Br680      Br  0.48271451  0.26934822  0.77556085    -0.00500
Br681      Br  0.44534576  0.20579637  0.72236083    -0.00400
Br682      Br  0.43496977  0.24968999  0.71490646    -0.00400
C683        C  0.53351178  0.27360200  0.72241519    -0.01500
C684        C  0.53420740  0.25731504  0.71186030     0.08200
C685        C  0.51723795  0.24889327  0.70683205    -0.01600
C686        C  0.50020211  0.25672142  0.71221118    -0.01600
C687        C  0.49964931  0.27120892  0.72515801     0.08300
C688        C  0.51672319  0.27950755  0.73027826    -0.01800
Br689      Br  0.51774428  0.29845340  0.74903318    -0.00400
Br690      Br  0.55447206  0.28988425  0.72374829    -0.00500
Br691      Br  0.47848202  0.24985636  0.69867293    -0.00400
Br692      Br  0.51699340  0.22724451  0.69126651    -0.00400
C693        C  0.52237993  0.20635447  0.79712355    -0.01500
C694        C  0.52980179  0.22151992  0.78698450     0.08200
C695        C  0.52089021  0.22671812  0.77052433    -0.01600
C696        C  0.50628406  0.21601032  0.76325606    -0.01600
C697        C  0.49743620  0.20262615  0.77434581     0.08300
C698        C  0.50553995  0.19811569  0.79167981    -0.01800
Br699      Br  0.49311395  0.18175863  0.80897333    -0.00400
Br700      Br  0.53544246  0.19605964  0.81817610    -0.00500
Br701      Br  0.49998936  0.21808859  0.73767028    -0.00400
Br702      Br  0.52677279  0.24985608  0.75966966    -0.00400
C703        C  0.57615791  0.25346871  0.76040052    -0.01500
C704        C  0.56817942  0.23711989  0.76823273     0.08200
C705        C  0.56388954  0.22257376  0.75582075    -0.01600
C706        C  0.56396386  0.22593118  0.73646722    -0.01600
C707        C  0.57167976  0.24239558  0.72902425     0.08300
C708        C  0.58005524  0.25475005  0.74132524    -0.01800
Br709      Br  0.59714140  0.27319376  0.73227886    -0.00400
Br710      Br  0.57782004  0.27613046  0.77385072    -0.00500
Br711      Br  0.55356018  0.20783009  0.72007620    -0.00400
Br712      Br  0.55818890  0.19796634  0.76467769    -0.00400
C713        C  0.40709943  0.16219897  0.74418776    -0.01500
C714        C  0.39385252  0.16966107  0.75630560     0.08200
C715        C  0.39973465  0.18361648  0.76875429    -0.01600
C716        C  0.41858690  0.18913987  0.76973799    -0.01600
C717        C  0.43180589  0.18175681  0.75756424     0.08300
C718        C  0.42568690  0.16836807  0.74456381    -0.01800
Br719      Br  0.44290151  0.15772434  0.72719145    -0.00400
Br720      Br  0.40030141  0.14228633  0.72781825    -0.00500
Br721      Br  0.42645940  0.20538083  0.78916477    -0.00400
Br722      Br  0.38203056  0.19595341  0.78424898    -0.00400
C723        C  0.40624773  0.30347156  0.72186481    -0.01500
C724        C  0.39609709  0.30294696  0.73860733     0.08200
C725        C  0.40505573  0.29588863  0.75475414    -0.01600
C726        C  0.42378834  0.29028986  0.75416170    -0.01600
C727        C  0.43349388  0.29027971  0.73735676     0.08300
C728        C  0.42435262  0.29643280  0.72114239    -0.01800
Br729      Br  0.43715017  0.29614517  0.69763572    -0.00400
Br730      Br  0.39655330  0.31539063  0.69981621    -0.00500
Br731      Br  0.43645466  0.28382281  0.77670430    -0.00400
Br732      Br  0.39222000  0.29335642  0.77803289    -0.00400
C733        C  0.32507011  0.24617172  0.75568824    -0.01500
C734        C  0.34003166  0.25499406  0.74675654     0.08200
C735        C  0.35435923  0.24434693  0.73918345    -0.01600
C736        C  0.35352162  0.22492958  0.74004358    -0.01600
C737        C  0.33840512  0.21602727  0.74866793     0.08300
C738        C  0.32423726  0.22669585  0.75662333    -0.01800
Br739      Br  0.30312005  0.21467431  0.76780615    -0.00400
Br740      Br  0.30531484  0.26073167  0.76590421    -0.00500
Br741      Br  0.37354694  0.21064261  0.72992131    -0.00400
Br742      Br  0.37560267  0.25642534  0.72827036    -0.00400
C743        C  0.25607794  0.29643669  0.72888739    -0.01500
C744        C  0.24636672  0.30988679  0.73887643     0.08200
C745        C  0.25614010  0.32331005  0.74912389    -0.01600
C746        C  0.27552996  0.32367828  0.74882654    -0.01600
C747        C  0.28526148  0.31003290  0.73907982     0.08300
C748        C  0.27549794  0.29630250  0.72924682    -0.01800
Br749      Br  0.28854405  0.27638399  0.71736416    -0.00400
Br750      Br  0.24285198  0.27723835  0.71591305    -0.00500
Br751      Br  0.28856741  0.34349591  0.76113545    -0.00400
Br752      Br  0.24315354  0.34135066  0.76371998    -0.00400
C753        C  0.25417827  0.16868662  0.73350327    -0.01500
C754        C  0.24437569  0.15570514  0.74438486     0.08200
C755        C  0.25409921  0.14290369  0.75553192    -0.01600
C756        C  0.27350072  0.14377161  0.75661929    -0.01600
C757        C  0.28329329  0.15724022  0.74628427     0.08300
C758        C  0.27360984  0.16932866  0.73430996    -0.01800
Br759      Br  0.28678806  0.18759089  0.71976817    -0.00400
Br760      Br  0.24102256  0.18653478  0.71844146    -0.00500
Br761      Br  0.28660557  0.12597638  0.77179094    -0.00400
Br762      Br  0.24089851  0.12363242  0.76874280    -0.00400
C763        C  0.18063253  0.22323812  0.73122867    -0.01500
C764        C  0.19254771  0.21321909  0.74314550     0.08200
C765        C  0.20543204  0.22284990  0.75421846    -0.01600
C766        C  0.20601734  0.24230891  0.75369917    -0.01600
C767        C  0.19267945  0.25221390  0.74343654     0.08300
C768        C  0.17979802  0.24258087  0.73241375    -0.01800
Br769      Br  0.15985961  0.25556678  0.72006292    -0.00400
Br770      Br  0.16503270  0.21088002  0.71334669    -0.00500
Br771      Br  0.22593203  0.25527397  0.76590451    -0.00400
Br772      Br  0.22321403  0.20952437  0.76917479    -0.00400
C773        C  0.11233567  0.19225655  0.74019652    -0.01500
C774        C  0.09754965  0.17944921  0.73943084     0.08200
C775        C  0.10116774  0.16086233  0.74528664    -0.01600
C776        C  0.11951921  0.15469426  0.74802717    -0.01600
C777        C  0.13406672  0.16754394  0.74835078     0.08300
C778        C  0.12973884  0.18650586  0.74692542    -0.01800
Br779      Br  0.14643369  0.20451919  0.75691755    -0.00400
Br780      Br  0.11048467  0.21675045  0.72978738    -0.00500
Br781      Br  0.12481190  0.12877640  0.75151455    -0.00400
Br782      Br  0.08116545  0.14370799  0.75018260    -0.00400
C783        C  0.06368967  0.24840488  0.74075374    -0.01500
C784        C  0.06996227  0.25107513  0.75890229     0.08200
C785        C  0.07627437  0.23541074  0.76906137    -0.01600
C786        C  0.07479110  0.21734176  0.76170313    -0.01600
C787        C  0.06866937  0.21485939  0.74336379     0.08300
C788        C  0.06473899  0.23083416  0.73263303    -0.01800
Br789      Br  0.06396768  0.22938135  0.70621416    -0.00400
Br790      Br  0.05228363  0.26823898  0.72717420    -0.00500
Br791      Br  0.08083831  0.19626059  0.77704298    -0.00400
Br792      Br  0.08521793  0.23818225  0.79386829    -0.00400
C793        C  0.12191609  0.29900205  0.74007054    -0.01500
C794        C  0.13761465  0.29510916  0.75106976     0.08200
C795        C  0.13518421  0.28389425  0.76707192    -0.01600
C796        C  0.11740920  0.27940060  0.77351533    -0.01600
C797        C  0.10159092  0.28296437  0.76260069     0.08300
C798        C  0.10404311  0.29326114  0.74597069    -0.01800
Br799      Br  0.08287143  0.30317170  0.73324094    -0.00400
Br800      Br  0.12453107  0.31303444  0.71742925    -0.00500
Br801      Br  0.11514263  0.27234250  0.79916503    -0.00400
Br802      Br  0.15605007  0.27345196  0.78029929    -0.00400
C803        C  0.00134862  0.20723665  0.71408667    -0.01500
C804        C  0.99176766  0.20430752  0.73078572     0.08200
C805        C  0.00212020  0.19976817  0.74676967    -0.01600
C806        C  0.02150230  0.19718722  0.74580261    -0.01600
C807        C  0.03085177  0.19867104  0.72873373     0.08300
C808        C  0.02041145  0.20345123  0.71278315    -0.01800
Br809      Br  0.03106188  0.20205009  0.68836048    -0.00400
Br810      Br  0.98795141  0.21476158  0.69226008    -0.00500
Br811      Br  0.03434707  0.18795047  0.76729162    -0.00400
Br812      Br  0.98983744  0.19545098  0.76987620    -0.00400
C813        C  0.00528490  0.25702067  0.78645336    -0.01500
C814        C  0.99476320  0.27272649  0.78146383     0.08200
C815        C  0.00381161  0.28765059  0.77245339    -0.01600
C816        C  0.02269512  0.28647605  0.76784392    -0.01600
C817        C  0.03363316  0.27152940  0.77435144     0.08300
C818        C  0.02455870  0.25651825  0.78315940    -0.01800
Br819      Br  0.03838176  0.23616605  0.79313685    -0.00400
Br820      Br  0.99430418  0.23789178  0.80155244    -0.00500
Br821      Br  0.03409641  0.30679727  0.75446801    -0.00400
Br822      Br  0.99163279  0.31132024  0.76956311    -0.00400
C823        C  0.95243627  0.23482346  0.77560900    -0.01500
C824        C  0.95669893  0.25362806  0.77199100     0.08200
C825        C  0.95898489  0.25931509  0.75328279    -0.01600
C826        C  0.95890773  0.24626512  0.73887983    -0.01600
C827        C  0.95611260  0.22746929  0.74281740     0.08300
C828        C  0.95179666  0.22196157  0.76110123    -0.01800
Br829      Br  0.94299731  0.19702915  0.76594308    -0.00400
Br830      Br  0.94802018  0.22592021  0.80025875    -0.00500
Br831      Br  0.96180178  0.25393567  0.71353771    -0.00400
Br832      Br  0.96089592  0.28504603  0.74681195    -0.00400
C833        C  0.32064432  0.09697401  0.73885277    -0.01500
C834        C  0.33075986  0.10490326  0.75377751     0.08200
C835        C  0.33329071  0.09393687  0.76991768    -0.01600
C836        C  0.32624926  0.07566407  0.77093928    -0.01600
C837        C  0.31746286  0.06734038  0.75554968     0.08300
C838        C  0.31459300  0.07826180  0.73959932    -0.01800
Br839      Br  0.30313874  0.06736253  0.71829123    -0.00400
Br840      Br  0.31409452  0.11153244  0.71729241    -0.00500
Br841      Br  0.32932485  0.06158773  0.79362968    -0.00400
Br842      Br  0.34767092  0.10304269  0.79049942    -0.00400
C843        C  0.25640021  0.03063777  0.73068665    -0.01500
C844        C  0.24363454  0.03659101  0.74424793     0.08200
C845        C  0.25114948  0.04471824  0.76046259    -0.01600
C846        C  0.27049848  0.04669551  0.76289395    -0.01600
C847        C  0.28284458  0.03751283  0.75115504     0.08300
C848        C  0.27562345  0.02991375  0.73469226    -0.01800
Br849      Br  0.29221444  0.01890482  0.71724491    -0.00400
Br850      Br  0.24800482  0.02407178  0.70630017    -0.00500
Br851      Br  0.27984097  0.06229324  0.78222146    -0.00400
Br852      Br  0.23588479  0.05041725  0.78121598    -0.00400
C853        C  0.20838502  0.09586599  0.73438310    -0.01500
C854        C  0.19612130  0.10262693  0.74807003     0.08200
C855        C  0.19083678  0.09058042  0.76256840    -0.01600
C856        C  0.19684171  0.07199728  0.76289016    -0.01600
C857        C  0.20807326  0.06482609  0.74850136     0.08300
C858        C  0.21392928  0.07708641  0.73439357    -0.01800
Br859      Br  0.22809871  0.06810807  0.71391545    -0.00400
Br860      Br  0.21850572  0.11223939  0.71565395    -0.19700
Br861      Br  0.18870309  0.05622784  0.78313286    -0.00400
Br862      Br  0.17424748  0.09897028  0.78160862    -0.00400
C863        C  0.30189146  0.96552848  0.76535157    -0.01500
C864        C  0.28889599  0.96413899  0.77980631     0.08200
C865        C  0.28290414  0.98082917  0.78799533    -0.01600
C866        C  0.28987555  0.99815729  0.78191419    -0.01600
C867        C  0.30062792  0.99961411  0.76573074     0.08300
C868        C  0.30657447  0.98293576  0.75749524    -0.01800
Br869      Br  0.32205715  0.98357687  0.73576097    -0.00400
Br870      Br  0.31563369  0.94422175  0.75788683    -0.00500
Br871      Br  0.28773662  0.01887979  0.79814500    -0.00400
Br872      Br  0.26580828  0.98021036  0.80851937    -0.00400
C873        C  0.24652752  0.97363069  0.72970544    -0.01500
C874        C  0.23607678  0.96438980  0.71619540     0.08200
C875        C  0.21895295  0.97219332  0.71081584    -0.01600
C876        C  0.21398459  0.98990903  0.71683715    -0.01600
C877        C  0.22354204  0.99824775  0.73177070     0.08300
C878        C  0.23906483  0.98899301  0.73903368    -0.01800
Br879      Br  0.24855089  0.99580102  0.76261934    -0.00400
Br880      Br  0.27185026  0.96740898  0.73306079    -0.00500
Br881      Br  0.19508762  0.00304911  0.70304721    -0.00400
Br882      Br  0.20172455  0.95854109  0.69557089    -0.00400
C883        C  0.24323595  0.93114050  0.74537789    -0.01500
C884        C  0.25399507  0.92579603  0.72995014     0.08200
C885        C  0.27174827  0.91833573  0.73386063    -0.01600
C886        C  0.27818386  0.91648270  0.75224556    -0.01600
C887        C  0.26943101  0.92607208  0.76664587     0.08300
C888        C  0.25156226  0.93314800  0.76304350    -0.01800
Br889      Br  0.23860649  0.94622688  0.78198636    -0.00400
Br890      Br  0.21701364  0.93504126  0.74278746    -0.00500
Br891      Br  0.29877911  0.90045997  0.75711886    -0.00400
Br892      Br  0.28937288  0.91376528  0.71478106    -0.00400
C893        C  0.25179965  0.54532507  0.72906527    -0.01500
C894        C  0.26838070  0.53839863  0.72114641     0.08200
C895        C  0.28201855  0.53163778  0.73362310    -0.01600
C896        C  0.27794298  0.52894895  0.75263841    -0.01600
C897        C  0.26104227  0.53505720  0.76026407     0.08300
C898        C  0.24872223  0.54457637  0.74841900    -0.01800
Br899      Br  0.22686224  0.55580835  0.75837066    -0.00400
Br900      Br  0.23181169  0.55403108  0.71388418    -0.00500
Br901      Br  0.29581999  0.51667118  0.76808708    -0.00400
Br902      Br  0.30655620  0.52594725  0.72508421    -0.00400
C903        C  0.28796224  0.47533826  0.72142253    -0.01500
C904        C  0.30066825  0.46777249  0.70878595     0.08200
C905        C  0.30319207  0.47722009  0.69170732    -0.01600
C906        C  0.29506761  0.49462404  0.68861810    -0.01600
C907        C  0.28068540  0.50081720  0.70018432     0.08300
C908        C  0.27639290  0.49014176  0.71590529    -0.01800
Br909      Br  0.25359951  0.49426568  0.72829683    -0.00400
Br910      Br  0.28827516  0.46805811  0.74688106    -0.00500
Br911      Br  0.30439508  0.51006495  0.66874538    -0.00400
Br912      Br  0.31615232  0.46593254  0.67139896    -0.00400
C913        C  0.31548079  0.38888948  0.71463201    -0.01500
C914        C  0.32572055  0.40305467  0.72328023     0.08200
C915        C  0.34067316  0.39787609  0.73510587    -0.01600
C916        C  0.34492878  0.37904308  0.73837067    -0.01600
C917        C  0.33453719  0.36499375  0.72983396     0.08300
C918        C  0.31950008  0.37006061  0.71828642    -0.01800
Br919      Br  0.30366313  0.35123815  0.70790172    -0.00400
Br920      Br  0.29740072  0.39493241  0.69599361    -0.00500
Br921      Br  0.36568650  0.37251567  0.75395156    -0.00400
Br922      Br  0.35577492  0.41642004  0.74713896    -0.00400
C923        C  0.23244448  0.47094881  0.76403479    -0.01500
C924        C  0.24404222  0.45683359  0.77105173     0.08200
C925        C  0.25908062  0.46196255  0.78241044    -0.01600
C926        C  0.26313306  0.48077219  0.78573291    -0.01600
C927        C  0.25170310  0.49502478  0.77847000     0.08300
C928        C  0.23591281  0.48979228  0.76818651    -0.01800
Br929      Br  0.21772339  0.50807203  0.76151014    -0.00400
Br930      Br  0.21028508  0.46428258  0.75073825    -0.00500
Br931      Br  0.28318659  0.48663728  0.80252370    -0.00400
Br932      Br  0.27325337  0.44336927  0.79526731    -0.00400
C933        C  0.27121494  0.41774163  0.75334489    -0.01500
C934        C  0.25478350  0.42433510  0.74508266     0.08200
C935        C  0.25548046  0.43108860  0.72682787    -0.01600
C936        C  0.27261809  0.43216352  0.71740845    -0.01600
C937        C  0.28945400  0.42866904  0.72700149     0.08300
C938        C  0.28840910  0.42155442  0.74524166    -0.01800
Br939      Br  0.30971006  0.42042640  0.76110353    -0.00400
Br940      Br  0.27018689  0.40174462  0.77486768    -0.00500
Br941      Br  0.27272979  0.43783294  0.69137010    -0.00400
Br942      Br  0.23281827  0.43773258  0.71462383    -0.00400
C943        C  0.22610079  0.38277292  0.73828792    -0.01500
C944        C  0.21751520  0.39614779  0.74969124     0.08200
C945        C  0.19822990  0.39378691  0.75314182    -0.01600
C946        C  0.18947460  0.37658476  0.75009082    -0.01600
C947        C  0.19875095  0.36264831  0.74056504     0.08300
C948        C  0.21610546  0.36687864  0.73265987    -0.01800
Br949      Br  0.22671039  0.35038157  0.71477827    -0.00400
Br950      Br  0.25162778  0.38410590  0.73117827    -0.00500
Br951      Br  0.16482174  0.37191445  0.75904283    -0.00400
Br952      Br  0.18352826  0.41408025  0.76211641    -0.00400
C953        C  0.89543187  0.27278031  0.80004716    -0.01500
C954        C  0.89123503  0.26571106  0.81790076     0.08200
C955        C  0.90585488  0.25911770  0.82902837    -0.01600
C956        C  0.92435179  0.26024577  0.82274106    -0.01600
C957        C  0.92854771  0.26712082  0.80474525     0.08300
C958        C  0.91381476  0.27312308  0.79345015    -0.01800
Br959      Br  0.91872533  0.28331597  0.76934145    -0.00400
Br960      Br  0.87619190  0.28249293  0.78426355    -0.00500
Br961      Br  0.94405255  0.25306281  0.83944259    -0.00400
Br962      Br  0.90069483  0.24993277  0.85358482    -0.00400
C963        C  0.63032661  0.23004380  0.69126377    -0.01500
C964        C  0.63773817  0.24419615  0.67957286     0.08200
C965        C  0.62666763  0.25989839  0.67582373    -0.01600
C966        C  0.60894294  0.26151405  0.68375142    -0.01600
C967        C  0.60090828  0.24664937  0.69390165     0.08300
C968        C  0.61189486  0.23103229  0.69776571    -0.01800
Br969      Br  0.60163772  0.21052618  0.71141269    -0.00400
Br970      Br  0.64518226  0.20923836  0.69928533    -0.00500
Br971      Br  0.59533601  0.28431833  0.68025317    -0.00400
Br972      Br  0.63475032  0.27868750  0.65841078    -0.00400
C973        C  0.62455564  0.23240939  0.80426224    -0.01500
C974        C  0.63155358  0.24748684  0.81460924     0.08200
C975        C  0.61937683  0.26199749  0.81915763    -0.01600
C976        C  0.60056245  0.26121218  0.81380920    -0.01600
C977        C  0.59336540  0.24551908  0.80440508     0.08300
C978        C  0.60552650  0.23093591  0.80030527    -0.01800
Br979      Br  0.59609239  0.20743130  0.79222175    -0.00400
Br980      Br  0.64084968  0.21385730  0.79423904    -0.00500
Br981      Br  0.58468234  0.28168507  0.82031884    -0.00400
Br982      Br  0.62794263  0.28262845  0.83373257    -0.00400
C983        C  0.75262303  0.23755473  0.83532115    -0.01500
C984        C  0.74252580  0.24653172  0.82113506     0.08200
C985        C  0.75208771  0.25586146  0.80687268    -0.01600
C986        C  0.77150304  0.25704557  0.80730152    -0.01600
C987        C  0.78150981  0.24971987  0.82243850     0.08300
C988        C  0.77201338  0.23953206  0.83624284    -0.01800
Br989      Br  0.78521535  0.22913958  0.85710765    -0.00400
Br990      Br  0.73997262  0.22303465  0.85395053    -0.00500
Br991      Br  0.78438864  0.26757092  0.78639294    -0.00400
Br992      Br  0.73867304  0.26633425  0.78617497    -0.00400
C993        C  0.70012236  0.23191645  0.75813279    -0.01500
C994        C  0.68654711  0.24279483  0.76674743     0.08200
C995        C  0.67365563  0.25274142  0.75591469    -0.01600
C996        C  0.67484059  0.25243356  0.73654385    -0.01600
C997        C  0.68885579  0.24208203  0.72794880     0.08300
C998        C  0.70126911  0.23156899  0.73877420    -0.01800
Br999      Br  0.72066168  0.21756082  0.72716561    -0.00400
Br1000     Br  0.71795666  0.21830694  0.77275435    -0.00500
Br1001     Br  0.65678194  0.26566922  0.72185730    -0.00400
Br1002     Br  0.65383226  0.26614633  0.76756356    -0.00400
C1003       C  0.90928339  0.21602655  0.68030578    -0.01500
C1004       C  0.89616764  0.22733886  0.68878390     0.08200
C1005       C  0.89992826  0.23393827  0.70665924    -0.01600
C1006       C  0.91429208  0.22615188  0.71736465    -0.01600
C1007       C  0.92787784  0.21491799  0.70901989     0.08300
C1008       C  0.92570511  0.21109610  0.68979093    -0.01800
Br1009     Br  0.94481688  0.19906683  0.67581845    -0.00400
Br1010     Br  0.90460752  0.20746413  0.65557492    -0.00500
Br1011     Br  0.91195563  0.22819602  0.74365459    -0.00400
Br1012     Br  0.88544403  0.25365584  0.71683461    -0.00400
C1013       C  0.77706277  0.22999279  0.66096627    -0.01500
C1014       C  0.78717949  0.23926639  0.67473369     0.08200
C1015       C  0.77779716  0.24913570  0.68849875    -0.01600
C1016       C  0.75837902  0.24999654  0.68836197    -0.01600
C1017       C  0.74826831  0.24060679  0.67465935     0.08300
C1018       C  0.75764347  0.23048895  0.66102590    -0.01800
Br1019     Br  0.74400792  0.21765468  0.64204435    -0.00400
Br1020     Br  0.78982805  0.21694783  0.64169853    -0.00500
Br1021     Br  0.74564432  0.26304607  0.70767919    -0.00400
Br1022     Br  0.79137413  0.26029871  0.70836583    -0.00400
C1023       C  0.83698332  0.26028070  0.73865506    -0.01500
C1024       C  0.84210596  0.24264136  0.73191496     0.08200
C1025       C  0.84866137  0.22915273  0.74465128    -0.01600
C1026       C  0.84869882  0.23270968  0.76377853    -0.01600
C1027       C  0.84090113  0.24926612  0.77066494     0.08300
C1028       C  0.83558260  0.26331272  0.75775454    -0.01800
Br1029     Br  0.82638396  0.28741984  0.76518347    -0.00400
Br1030     Br  0.83254312  0.28131754  0.72227571    -0.00500
Br1031     Br  0.86147078  0.21540994  0.77993132    -0.00400
Br1032     Br  0.85958622  0.20631532  0.73615669    -0.00400
C1033       C  0.25622670  0.59480810  0.66731553    -0.01500
C1034       C  0.27288849  0.60418631  0.67174155     0.08200
C1035       C  0.28683307  0.59403609  0.68128747    -0.01600
C1036       C  0.28395247  0.57523704  0.68634012    -0.01600
C1037       C  0.26654521  0.56660578  0.68393738     0.08300
C1038       C  0.25273849  0.57670050  0.67406060    -0.01800
Br1039     Br  0.22885145  0.56574795  0.66854401    -0.00400
Br1040     Br  0.23858714  0.60573420  0.65021215    -0.00500
Br1041     Br  0.30501786  0.56071573  0.69355154    -0.00400
Br1042     Br  0.31033802  0.60520120  0.68762734    -0.00400
C1043       C  0.26055253  0.87089399  0.81248397    -0.01500
C1044       C  0.27655037  0.85945985  0.81243191     0.08200
C1045       C  0.29354321  0.86754444  0.80644527    -0.01600
C1046       C  0.29456295  0.88652081  0.80188751    -0.01600
C1047       C  0.27838439  0.89738513  0.80043939     0.08300
C1048       C  0.26144020  0.88943869  0.80597640    -0.01800
Br1049     Br  0.23963920  0.90461721  0.80655255    -0.00400
Br1050     Br  0.23740075  0.86214360  0.82269724    -0.00500
Br1051     Br  0.31877215  0.89802472  0.79958672    -0.00400
Br1052     Br  0.31597100  0.85327914  0.80335449    -0.00400
C1053       C  0.24146217  0.59097883  0.80994992    -0.01500
C1054       C  0.25851036  0.60061457  0.80868175     0.08200
C1055       C  0.27334320  0.59194661  0.79924552    -0.01600
C1056       C  0.27174594  0.57349163  0.79307583    -0.01600
C1057       C  0.25495821  0.56370239  0.79480864     0.08300
C1058       C  0.23965221  0.57291524  0.80282262    -0.01800
Br1059     Br  0.21607564  0.56028521  0.80527463    -0.00400
Br1060     Br  0.22050543  0.60170611  0.82245019    -0.00500
Br1061     Br  0.29338361  0.56124895  0.78403705    -0.00400
Br1062     Br  0.29596596  0.60520570  0.79360722    -0.00400
C1063       C  0.28578482  0.66484592  0.75406332    -0.01500
C1064       C  0.27249472  0.65319816  0.76242666     0.08200
C1065       C  0.26113463  0.64181448  0.75144240    -0.01600
C1066       C  0.26257868  0.64259670  0.73211594    -0.01600
C1067       C  0.27482709  0.65533776  0.72369836     0.08300
C1068       C  0.28673980  0.66617131  0.73473609    -0.01800
Br1069     Br  0.30375624  0.68372005  0.72366341    -0.00400
Br1070     Br  0.30217687  0.67978319  0.76895671    -0.00500
Br1071     Br  0.24867215  0.62526394  0.71731913    -0.00400
Br1072     Br  0.24407872  0.62455107  0.76284044    -0.00400
C1073       C  0.28156730  0.71914765  0.82938677    -0.01500
C1074       C  0.27349510  0.70974609  0.81445157     0.08200
C1075       C  0.26704167  0.71965627  0.79887803    -0.01600
C1076       C  0.26760619  0.73906061  0.79872871    -0.01600
C1077       C  0.27521800  0.74849125  0.81387097     0.08300
C1078       C  0.28261833  0.73853570  0.82900677    -0.01800
Br1079     Br  0.29321248  0.75138044  0.84978553    -0.00400
Br1080     Br  0.29006408  0.70560689  0.85091246    -0.00500
Br1081     Br  0.25814151  0.75268532  0.77770193    -0.00400
Br1082     Br  0.25801039  0.70666372  0.77747315    -0.00400
C1083       C  0.26617144  0.87737322  0.67034642    -0.01500
C1084       C  0.25249268  0.86419124  0.67557346     0.08200
C1085       C  0.23830153  0.87019832  0.68780280    -0.01600
C1086       C  0.23921180  0.88784803  0.69624121    -0.01600
C1087       C  0.25296442  0.90079853  0.69123950     0.08300
C1088       C  0.26610696  0.89546425  0.67770267    -0.01800
Br1089     Br  0.28389794  0.91331024  0.66815023    -0.00400
Br1090     Br  0.28430623  0.87177496  0.65158531    -0.00500
Br1091     Br  0.22074900  0.89462098  0.71403825    -0.00400
Br1092     Br  0.21672956  0.85508167  0.69297483    -0.00400
C1093       C  0.26816327  0.82608551  0.73391955    -0.01500
C1094       C  0.27440296  0.81154349  0.72280338     0.08200
C1095       C  0.28449326  0.79687964  0.73090224    -0.01600
C1096       C  0.28677679  0.79597434  0.75023001    -0.01600
C1097       C  0.27863362  0.80953410  0.76143438     0.08300
C1098       C  0.27004171  0.82500178  0.75318349    -0.01800
Br1099     Br  0.26110565  0.84494844  0.76823863    -0.00400
Br1100     Br  0.25775159  0.84788507  0.72277722    -0.00500
Br1101     Br  0.30035419  0.77580539  0.76134020    -0.00400
Br1102     Br  0.29452127  0.77766445  0.71564143    -0.00400
C1103       C  0.27904473  0.74570547  0.65667974    -0.01500
C1104       C  0.26956276  0.75410724  0.67137551     0.08200
C1105       C  0.26370002  0.74319194  0.68658893    -0.01600
C1106       C  0.26750793  0.72409325  0.68709538    -0.01600
C1107       C  0.27680132  0.71570533  0.67229933     0.08300
C1108       C  0.28271831  0.72662977  0.65724311    -0.01800
Br1109     Br  0.29459683  0.71538238  0.63658135    -0.00400
Br1110     Br  0.28528380  0.75978684  0.63467693    -0.00500
Br1111     Br  0.26003473  0.70930865  0.70816047    -0.00400
Br1112     Br  0.25027263  0.75407724  0.70677251    -0.00400
C1113       C  0.24971612  0.72198907  0.43656133    -0.01500
C1114       C  0.26738353  0.72966372  0.43306726     0.08200
C1115       C  0.26824649  0.74861761  0.42795679    -0.01600
C1116       C  0.25191554  0.75945188  0.42709990    -0.01600
C1117       C  0.23472722  0.75223943  0.43321878     0.08300
C1118       C  0.23398534  0.73334419  0.43821293    -0.01800
Br1119     Br  0.21205906  0.72273902  0.44870984    -0.00400
Br1120     Br  0.24637915  0.69563462  0.43728097    -0.00500
Br1121     Br  0.25365248  0.78474466  0.41891598    -0.00400
Br1122     Br  0.29162994  0.76071158  0.42386619    -0.00400
C1123       C  0.28097268  0.72269178  0.50141747    -0.01500
C1124       C  0.27612390  0.70558685  0.50967645     0.08200
C1125       C  0.27048771  0.69092633  0.49813877    -0.01600
C1126       C  0.27306123  0.69219949  0.47893330    -0.01600
C1127       C  0.27864527  0.70913997  0.47058171     0.08300
C1128       C  0.28128289  0.72469008  0.48197708    -0.01800
Br1129     Br  0.28921953  0.74785688  0.47135136    -0.00400
Br1130     Br  0.29080670  0.74235183  0.51617646    -0.00500
Br1131     Br  0.27267808  0.66942275  0.46504342    -0.00400
Br1132     Br  0.26258114  0.66755860  0.50893486    -0.00400
C1133       C  0.29681780  0.68785151  0.58929656    -0.01500
C1134       C  0.28135768  0.68731014  0.57723387     0.08200
C1135       C  0.26574447  0.67693660  0.58296565    -0.01600
C1136       C  0.26443553  0.66966708  0.60115449    -0.01600
C1137       C  0.27960397  0.67097420  0.61354543     0.08300
C1138       C  0.29629455  0.67913577  0.60682542    -0.01800
Br1139     Br  0.31948620  0.67777009  0.62043747    -0.00400
Br1140     Br  0.31995825  0.69881335  0.58114426    -0.00500
Br1141     Br  0.24249593  0.65576368  0.60785584    -0.00400
Br1142     Br  0.24785313  0.66905485  0.56501633    -0.00400
C1143       C  0.23862532  0.77296476  0.50085854    -0.01500
C1144       C  0.22350408  0.76806501  0.51228825     0.08200
C1145       C  0.20695629  0.76212652  0.50350079    -0.01600
C1146       C  0.20597063  0.76022057  0.48410250    -0.01600
C1147       C  0.22055730  0.76651300  0.47262521     0.08300
C1148       C  0.23689808  0.77291535  0.48129195    -0.01800
Br1149     Br  0.25547591  0.78522463  0.46675065    -0.00400
Br1150     Br  0.26035453  0.78375075  0.51187630    -0.00500
Br1151     Br  0.18296534  0.75202034  0.47306272    -0.00400
Br1152     Br  0.18406219  0.76047127  0.51717503    -0.00400
C1153       C  0.26182278  0.75276541  0.55506659    -0.01500
C1154       C  0.24301618  0.75299771  0.54963273     0.08200
C1155       C  0.23449358  0.73580978  0.54586762    -0.01600
C1156       C  0.24506404  0.71959212  0.54394808    -0.01600
C1157       C  0.26377952  0.71921989  0.54946136     0.08300
C1158       C  0.27163673  0.73581857  0.55621532    -0.01800
Br1159     Br  0.29676870  0.73606443  0.56480659    -0.00400
Br1160     Br  0.27518512  0.77543178  0.55897518    -0.00500
Br1161     Br  0.23374047  0.69867713  0.53227610    -0.00400
Br1162     Br  0.20808225  0.73361022  0.54569701    -0.00400
C1163       C  0.24682104  0.80364001  0.58222320    -0.01500
C1164       C  0.23716859  0.78677817  0.57897925     0.08200
C1165       C  0.23241021  0.77565427  0.59435395    -0.01600
C1166       C  0.23722415  0.78114895  0.61251520    -0.01600
C1167       C  0.24647077  0.79820219  0.61574688     0.08300
C1168       C  0.25159534  0.80914654  0.60034903    -0.01800
Br1169     Br  0.26422525  0.83240406  0.60406678    -0.00400
Br1170     Br  0.25327724  0.81974372  0.56171674    -0.00500
Br1171     Br  0.23147433  0.76476146  0.63291147    -0.00400
Br1172     Br  0.21778657  0.75366689  0.59078202    -0.00400
C1173       C  0.29889952  0.71987867  0.37226282    -0.01500
C1174       C  0.31668163  0.72776556  0.36945102     0.08200
C1175       C  0.32706164  0.73336312  0.38490800    -0.01600
C1176       C  0.32016793  0.73035280  0.40290176    -0.01600
C1177       C  0.30266136  0.72178334  0.40575999     0.08300
C1178       C  0.29213487  0.71659499  0.39027520    -0.01800
Br1179     Br  0.26932016  0.70317554  0.39358421    -0.00400
Br1180     Br  0.28329598  0.71375410  0.35151753    -0.00500
Br1181     Br  0.33532383  0.73743616  0.42377113    -0.00400
Br1182     Br  0.35140005  0.74393722  0.38156530    -0.00400
C1183       C  0.20569371  0.78351853  0.39048727    -0.01500
C1184       C  0.20338927  0.76940450  0.40409769     0.08200
C1185       C  0.19072997  0.75501673  0.39991026    -0.01600
C1186       C  0.18312328  0.75306470  0.38192894    -0.01600
C1187       C  0.18712589  0.76612003  0.36775876     0.08300
C1188       C  0.19733427  0.78218454  0.37278759    -0.01800
Br1189     Br  0.19904628  0.80351434  0.35638958    -0.00400
Br1190     Br  0.21865478  0.80611477  0.39655327    -0.00500
Br1191     Br  0.16480455  0.73396341  0.37775471    -0.00400
Br1192     Br  0.18059988  0.74013352  0.41954718    -0.00400
C1193       C  0.24548536  0.74045222  0.30099018    -0.01500
C1194       C  0.23708165  0.75066442  0.31508278     0.08200
C1195       C  0.24798438  0.75992616  0.32820091    -0.01600
C1196       C  0.26734171  0.75894351  0.32736840    -0.01600
C1197       C  0.27580029  0.74860524  0.31329423     0.08300
C1198       C  0.26480046  0.73984201  0.29977374    -0.01800
Br1199     Br  0.27601967  0.72747686  0.27906285    -0.00400
Br1200     Br  0.23060456  0.72688153  0.28351188    -0.00500
Br1201     Br  0.28189568  0.77075716  0.34637519    -0.00400
Br1202     Br  0.23641563  0.77242659  0.34838942    -0.00400
C1203       C  0.32058766  0.76073528  0.23385168    -0.01500
C1204       C  0.33324510  0.75057730  0.22315081     0.08200
C1205       C  0.34698292  0.73976683  0.23204295    -0.01600
C1206       C  0.34714981  0.73805305  0.25134074    -0.01600
C1207       C  0.33377166  0.74717689  0.26187990     0.08300
C1208       C  0.32083703  0.75896271  0.25321576    -0.01800
Br1209     Br  0.30271077  0.77180109  0.26778695    -0.00400
Br1210     Br  0.30212539  0.77624173  0.22221941    -0.00500
Br1211     Br  0.36602661  0.72349195  0.26346092    -0.00400
Br1212     Br  0.36622136  0.72775538  0.21810091    -0.00400
C1213       C  0.16909232  0.72740268  0.23304309    -0.01500
C1214       C  0.18274909  0.73463556  0.22123456     0.08200
C1215       C  0.19650471  0.74653051  0.22820591    -0.01600
C1216       C  0.19693790  0.75070922  0.24713098    -0.01600
C1217       C  0.18372697  0.74273591  0.25917877     0.08300
C1218       C  0.16967818  0.73118154  0.25200162    -0.01800
Br1219     Br  0.15041657  0.72125216  0.26772586    -0.00400
Br1220     Br  0.14877245  0.71340523  0.22299231    -0.00500
Br1221     Br  0.21609715  0.76686493  0.25640867    -0.00400
Br1222     Br  0.21500143  0.75682146  0.21187540    -0.00400
C1223       C  0.24594797  0.74491500  0.15462202    -0.01500
C1224       C  0.23839353  0.73312774  0.16840287     0.08200
C1225       C  0.24975992  0.72687033  0.18310465    -0.01600
C1226       C  0.26857192  0.73179437  0.18359236    -0.01600
C1227       C  0.27616349  0.74295781  0.16948268     0.08300
C1228       C  0.26462798  0.75030974  0.15554026    -0.01800
Br1229     Br  0.27434194  0.76759429  0.13746251    -0.00400
Br1230     Br  0.23135648  0.75258210  0.13348819    -0.00500
Br1231     Br  0.28374255  0.72443167  0.20441119    -0.00400
Br1232     Br  0.23974751  0.71210259  0.20312943    -0.00400
C1233       C  0.21073292  0.69888965  0.11114863    -0.01500
C1234       C  0.19337687  0.70713178  0.11474794     0.08200
C1235       C  0.18174898  0.71172762  0.09977107    -0.01600
C1236       C  0.18723371  0.70791290  0.08148394    -0.01600
C1237       C  0.20487672  0.70012347  0.07776865     0.08300
C1238       C  0.21633269  0.69530694  0.09285048    -0.01800
Br1239     Br  0.23877986  0.68174324  0.08882447    -0.00400
Br1240     Br  0.22729419  0.69261996  0.13123281    -0.00500
Br1241     Br  0.16989039  0.71286071  0.06164983    -0.00400
Br1242     Br  0.15766200  0.72218334  0.10438395    -0.00400
C1243       C  0.27134555  0.72100044  0.04885525    -0.01500
C1244       C  0.26659803  0.73953098  0.05180439     0.08200
C1245       C  0.24812755  0.74388243  0.05609475    -0.01600
C1246       C  0.23407565  0.73058565  0.05418788    -0.01600
C1247       C  0.23849905  0.71190932  0.05057468     0.08300
C1248       C  0.25749571  0.70712725  0.04899984    -0.01800
Br1249     Br  0.26511244  0.68171780  0.04830235    -0.00400
Br1250     Br  0.29696008  0.71468731  0.04587990    -0.00500
Br1251     Br  0.20902723  0.73925583  0.05405068    -0.00400
Br1252     Br  0.24255938  0.76715415  0.06773601    -0.00400
C1253       C  0.32916163  0.75634085  0.09837923    -0.01500
C1254       C  0.32068941  0.74724114  0.11333099     0.08200
C1255       C  0.30342524  0.73855589  0.11032724    -0.01600
C1256       C  0.29280400  0.74279714  0.09440040    -0.01600
C1257       C  0.30069385  0.75320111  0.07963735     0.08300
C1258       C  0.31980021  0.75792294  0.08124058    -0.01800
Br1259     Br  0.33353433  0.76620091  0.05985202    -0.00400
Br1260     Br  0.35374854  0.76622383  0.10136957    -0.00500
Br1261     Br  0.26725976  0.73560861  0.09499944    -0.00400
Br1262     Br  0.29392411  0.72101176  0.12822777    -0.00400
C1263       C  0.24952219  0.66796129  0.99239230    -0.01500
C1264       C  0.24912462  0.68262676  0.97930581     0.08200
C1265       C  0.24596190  0.70038726  0.98632371    -0.01600
C1266       C  0.23639038  0.70253847  0.00308210    -0.01600
C1267       C  0.23350417  0.68718333  0.01494386     0.08300
C1268       C  0.24106795  0.66992247  0.00977098    -0.01800
Br1269     Br  0.23894175  0.64840763  0.02574459    -0.00400
Br1270     Br  0.26279679  0.64553858  0.98682163    -0.00500
Br1271     Br  0.22620220  0.72643659  0.00817930    -0.00400
Br1272     Br  0.26446015  0.71862546  0.98172693    -0.00400
C1273       C  0.24464225  0.68462197  0.89531055    -0.01500
C1274       C  0.25442314  0.67544339  0.90951577     0.08200
C1275       C  0.26751642  0.66181375  0.90460260    -0.01600
C1276       C  0.26964743  0.65635089  0.88604024    -0.01600
C1277       C  0.25908016  0.66482529  0.87184752     0.08300
C1278       C  0.24730605  0.67974690  0.87660860    -0.01800
Br1279     Br  0.23517348  0.69428325  0.85763450    -0.00400
Br1280     Br  0.22662328  0.70308991  0.90145711    -0.00500
Br1281     Br  0.28606465  0.63609317  0.88059519    -0.00400
Br1282     Br  0.28180561  0.64955023  0.92371001    -0.00400
C1283       C  0.28143989  0.76010408  0.98473451    -0.01500
C1284       C  0.26473212  0.76780579  0.97801834     0.08200
C1285       C  0.25176694  0.77421624  0.99112645    -0.01600
C1286       C  0.25570003  0.77346513  0.01023592    -0.01600
C1287       C  0.27203541  0.76503458  0.01695322     0.08300
C1288       C  0.28478095  0.75820823  0.00395897    -0.01800
Br1289     Br  0.30836210  0.74898849  0.01240595    -0.00400
Br1290     Br  0.30105588  0.75444424  0.96789139    -0.00500
Br1291     Br  0.23987061  0.78691413  0.02659716    -0.00400
Br1292     Br  0.22949148  0.78674269  0.98304393    -0.00400
C1293       C  0.24240225  0.73845513  0.94450834    -0.01500
C1294       C  0.25978624  0.74609245  0.93962899     0.08200
C1295       C  0.27363210  0.73391365  0.93329143    -0.01600
C1296       C  0.27117976  0.71448075  0.93474383    -0.01600
C1297       C  0.25427756  0.70693189  0.94096451     0.08300
C1298       C  0.23952233  0.71910718  0.94468666    -0.01800
Br1299     Br  0.21536875  0.70921866  0.95055739    -0.00400
Br1300     Br  0.22205254  0.75439909  0.95022584    -0.00500
Br1301     Br  0.29146699  0.69826980  0.92957634    -0.00400
Br1302     Br  0.29576601  0.74344105  0.92207094    -0.00400
C1303       C  0.25367458  0.77462658  0.89556648    -0.01500
C1304       C  0.26770519  0.77854224  0.90849744     0.08200
C1305       C  0.28396320  0.78753737  0.90216898    -0.01600
C1306       C  0.28529988  0.79437195  0.88389666    -0.01600
C1307       C  0.27075453  0.79139838  0.87106919     0.08300
C1308       C  0.25537739  0.78047089  0.87691270    -0.01800
Br1309     Br  0.23662303  0.77257446  0.85956359    -0.00400
Br1310     Br  0.23154160  0.76210962  0.90345141    -0.00500
Br1311     Br  0.30676140  0.80910991  0.87744733    -0.00400
Br1312     Br  0.30423166  0.79176294  0.91919559    -0.00400
C1313       C  0.10832721  0.76614333  0.27274809    -0.01500
C1314       C  0.09276300  0.75872460  0.28178893     0.08200
C1315       C  0.09537345  0.74956946  0.29905700    -0.01600
C1316       C  0.11321028  0.74782243  0.30695199    -0.01600
C1317       C  0.12854494  0.75645382  0.29846525     0.08300
C1318       C  0.12601429  0.76504659  0.28092261    -0.01800
Br1319     Br  0.14664158  0.77544436  0.26743042    -0.00400
Br1320     Br  0.10530927  0.78012939  0.25024360    -0.00500
Br1321     Br  0.11625233  0.73464732  0.33005851    -0.00400
Br1322     Br  0.07422115  0.74110332  0.31312593    -0.00400
C1323       C  0.06874512  0.71930051  0.23174916    -0.01500
C1324       C  0.06386181  0.72677327  0.21427828     0.08200
C1325       C  0.06161585  0.74606587  0.21274903    -0.01600
C1326       C  0.06393806  0.75746700  0.22825337    -0.01600
C1327       C  0.06581505  0.74982196  0.24619748     0.08300
C1328       C  0.06885122  0.73052726  0.24770267    -0.01800
Br1329     Br  0.07183296  0.71875679  0.27136218    -0.00400
Br1330     Br  0.07347734  0.69323686  0.23435189    -0.00500
Br1331     Br  0.06626831  0.78362820  0.22424479    -0.00400
Br1332     Br  0.05450466  0.75736096  0.18980296    -0.00400
C1333       C  0.10420473  0.69254116  0.19000260    -0.01500
C1334       C  0.09131141  0.70652192  0.18534092     0.08200
C1335       C  0.09690240  0.72019015  0.17248637    -0.01600
C1336       C  0.11563135  0.72214628  0.16728408    -0.01600
C1337       C  0.12923200  0.70949340  0.17390000     0.08300
C1338       C  0.12303314  0.69417276  0.18485333    -0.01800
Br1339     Br  0.13960453  0.67469425  0.19303147    -0.00400
Br1340     Br  0.09568662  0.66957040  0.20102112    -0.00500
Br1341     Br  0.12160979  0.74159099  0.14965606    -0.00400
Br1342     Br  0.07839864  0.73345427  0.15852789    -0.00400
C1343       C  0.00186532  0.78690617  0.24288013    -0.01500
C1344       C  0.98953055  0.77356453  0.25026497     0.08200
C1345       C  0.99712690  0.75753149  0.25864737    -0.01600
C1346       C  0.01647421  0.75574618  0.26108020    -0.01600
C1347       C  0.02851285  0.77027944  0.25582619     0.08300
C1348       C  0.02089125  0.78607113  0.24698943    -0.01800
Br1349     Br  0.03500155  0.80877730  0.24487733    -0.00400
Br1350     Br  0.99223543  0.80883303  0.23080845    -0.00500
Br1351     Br  0.02588119  0.73556031  0.27596681    -0.00400
Br1352     Br  0.98124876  0.73936285  0.26984871    -0.00400
C1353       C  0.99407528  0.72433584  0.18282632    -0.01500
C1354       C  0.98395475  0.71748583  0.19817650     0.08200
C1355       C  0.99392021  0.71213025  0.21417187    -0.01600
C1356       C  0.01350309  0.71223770  0.21431100    -0.01600
C1357       C  0.02352878  0.71736345  0.19836866     0.08300
C1358       C  0.01359144  0.72461367  0.18309221    -0.01800
Br1359     Br  0.02665982  0.73186328  0.16089859    -0.00400
Br1360     Br  0.98170972  0.73007294  0.15981477    -0.00500
Br1361     Br  0.02626924  0.70243042  0.23548634    -0.00400
Br1362     Br  0.98119546  0.70048164  0.23447210    -0.00400
C1363       C  0.94156788  0.72999937  0.23473162    -0.01500
C1364       C  0.94581503  0.73053361  0.21569594     0.08200
C1365       C  0.94851123  0.74803916  0.20733941    -0.01600
C1366       C  0.95113753  0.76397386  0.21811179    -0.01600
C1367       C  0.94839108  0.76331256  0.23737052     0.08300
C1368       C  0.94207990  0.74644341  0.24522937    -0.01800
Br1369     Br  0.93472541  0.74544048  0.27063011    -0.00400
Br1370     Br  0.93563655  0.70709698  0.24707293    -0.00500
Br1371     Br  0.95912710  0.78619679  0.20598714    -0.00400
Br1372     Br  0.94661089  0.75062550  0.18099174    -0.00400
C1373       C  0.55937146  0.74777854  0.26824519    -0.01500
C1374       C  0.56482165  0.73146572  0.25912672     0.08200
C1375       C  0.57069922  0.73329907  0.24056279    -0.01600
C1376       C  0.57074434  0.75085610  0.23162009    -0.01600
C1377       C  0.56240633  0.76636496  0.23996668     0.08300
C1378       C  0.55636516  0.76439868  0.25837248    -0.01800
Br1379     Br  0.54286704  0.78372286  0.27029547    -0.00400
Br1380     Br  0.55810216  0.74841217  0.29466443    -0.00500
Br1381     Br  0.58061225  0.75288883  0.20711868    -0.00400
Br1382     Br  0.57678058  0.71196890  0.22622319    -0.00400
C1383       C  0.50053780  0.72348621  0.29531742    -0.01500
C1384       C  0.48873908  0.71914030  0.28035547     0.08200
C1385       C  0.49686754  0.71509110  0.26314163    -0.01600
C1386       C  0.51633962  0.71479895  0.26122560    -0.01600
C1387       C  0.52783115  0.71607640  0.27694190     0.08300
C1388       C  0.51960006  0.72000766  0.29416887    -0.01800
Br1389     Br  0.53318146  0.71668573  0.31705380    -0.00400
Br1390     Br  0.49026014  0.73151978  0.31855137    -0.00500
Br1391     Br  0.52704208  0.70871433  0.23774591    -0.00400
Br1392     Br  0.48199836  0.70643057  0.24303424    -0.00400
C1393       C  0.41627965  0.73473350  0.30659073    -0.01500
C1394       C  0.42069831  0.71839518  0.29701460     0.08200
C1395       C  0.40714790  0.70421301  0.29636217    -0.01600
C1396       C  0.38925769  0.70686085  0.30369998    -0.01600
C1397       C  0.38418213  0.72412703  0.31163123     0.08300
C1398       C  0.39830486  0.73769480  0.31371316    -0.01800
Br1399     Br  0.39424742  0.75971486  0.32818834    -0.00400
Br1400     Br  0.43551570  0.75202811  0.31267326    -0.00500
Br1401     Br  0.37268940  0.68565291  0.30351038    -0.00400
Br1402     Br  0.41338773  0.68011702  0.28665458    -0.00400
C1403       C  0.49093199  0.79235801  0.22839972    -0.01500
C1404       C  0.48407993  0.77569235  0.22088515     0.08200
C1405       C  0.49670773  0.76143144  0.21689533    -0.01600
C1406       C  0.51594575  0.76452504  0.21879084    -0.01600
C1407       C  0.52264072  0.78092683  0.22697291     0.08300
C1408       C  0.50964262  0.79397989  0.23336649    -0.01800
Br1409     Br  0.51783997  0.81628906  0.24562832    -0.00400
Br1410     Br  0.47648186  0.81487028  0.22721651    -0.00500
Br1411     Br  0.53257067  0.74833873  0.20618735    -0.00400
Br1412     Br  0.48798764  0.73955894  0.20443824    -0.00400
C1413       C  0.45511303  0.75197919  0.26492056    -0.01500
C1414       C  0.44940846  0.73335893  0.26547826     0.08200
C1415       C  0.44198063  0.72569332  0.24913052    -0.01600
C1416       C  0.44245684  0.73580375  0.23221864    -0.01600
C1417       C  0.44730313  0.75483408  0.23200350     0.08300
C1418       C  0.45149550  0.76295306  0.24921481    -0.01800
Br1419     Br  0.44904612  0.78902437  0.25268820    -0.00400
Br1420     Br  0.47012912  0.76242712  0.28414006    -0.00500
Br1421     Br  0.43855054  0.72248019  0.20977838    -0.00400
Br1422     Br  0.43388981  0.70031427  0.24914069    -0.00400
C1423       C  0.40505461  0.76897880  0.20331282    -0.01500
C1424       C  0.42058718  0.76089086  0.19511035     0.08200
C1425       C  0.41815181  0.75093469  0.17842922    -0.01600
C1426       C  0.40041275  0.74871677  0.17049661    -0.01600
C1427       C  0.38498158  0.75740396  0.17837638     0.08300
C1428       C  0.38753433  0.76779005  0.19476456    -0.01800
Br1429     Br  0.36747265  0.78137821  0.20558067    -0.00400
Br1430     Br  0.40809778  0.78343033  0.22535303    -0.00500
Br1431     Br  0.39756742  0.73542645  0.14768351    -0.00400
Br1432     Br  0.43941559  0.74145725  0.16544920    -0.00400
C1433       C  0.90030278  0.81731317  0.24026181    -0.01500
C1434       C  0.88686623  0.81213966  0.25353279     0.08200
C1435       C  0.89225729  0.79994714  0.26804949    -0.01600
C1436       C  0.91052461  0.79320831  0.26913750    -0.01600
C1437       C  0.92333122  0.79662523  0.25474530     0.08300
C1438       C  0.91841746  0.80993921  0.24113422    -0.01800
Br1439     Br  0.93736032  0.82136022  0.22624285    -0.00400
Br1440     Br  0.89462302  0.83587428  0.22170882    -0.00500
Br1441     Br  0.91863977  0.78239458  0.29228644    -0.00400
Br1442     Br  0.87477789  0.79126396  0.28640579    -0.00400
C1443       C  0.61799221  0.67517703  0.25397087    -0.01500
C1444       C  0.63171465  0.68437192  0.26432522     0.08200
C1445       C  0.62684675  0.70082142  0.27370807    -0.01600
C1446       C  0.60836510  0.70706767  0.27393081    -0.01600
C1447       C  0.59437234  0.69704087  0.26488472     0.08300
C1448       C  0.59942811  0.68118163  0.25459666    -0.01800
Br1449     Br  0.58061930  0.66659633  0.24232943    -0.00400
Br1450     Br  0.62418671  0.65351587  0.23988886    -0.00500
Br1451     Br  0.60210395  0.72837359  0.28833185    -0.00400
Br1452     Br  0.64537434  0.71537524  0.28628361    -0.00400
C1453       C  0.89811262  0.67271053  0.22257128    -0.01500
C1454       C  0.88211714  0.68280371  0.21780402     0.08200
C1455       C  0.88403832  0.69901113  0.20673843    -0.01600
C1456       C  0.90177220  0.70563954  0.20170604    -0.01600
C1457       C  0.91781104  0.69603275  0.20722472     0.08300
C1458       C  0.91575759  0.67906367  0.21705112    -0.01800
Br1459     Br  0.93721734  0.66412575  0.22280884    -0.00400
Br1460     Br  0.89574731  0.64925441  0.23535796    -0.00500
Br1461     Br  0.90395770  0.72722668  0.18610588    -0.00400
Br1462     Br  0.86249990  0.71247963  0.19830655    -0.00400
C1463       C  0.81424878  0.73718267  0.24905946    -0.01500
C1464       C  0.83101179  0.72774243  0.24645106     0.08200
C1465       C  0.84777439  0.73753103  0.24521373    -0.01600
C1466       C  0.84752164  0.75684615  0.24432380    -0.01600
C1467       C  0.83095040  0.76632503  0.24767391     0.08300
C1468       C  0.81443191  0.75648019  0.25092336    -0.01800
Br1469     Br  0.79221397  0.76927020  0.25795152    -0.00400
Br1470     Br  0.79116548  0.72377359  0.25001365    -0.00500
Br1471     Br  0.86976182  0.77009993  0.23789689    -0.00400
Br1472     Br  0.87109619  0.72466823  0.24524607    -0.00400
C1473       C  0.74936918  0.65602458  0.25386439    -0.01500
C1474       C  0.74183806  0.66932689  0.26585602     0.08200
C1475       C  0.75395791  0.67952180  0.27740685    -0.01600
C1476       C  0.77324697  0.67862892  0.27462543    -0.01600
C1477       C  0.78033581  0.66767194  0.26033438     0.08300
C1478       C  0.76849854  0.65538259  0.25098498    -0.01800
Br1479     Br  0.77850638  0.63727532  0.23436143    -0.00400
Br1480     Br  0.73379765  0.63778775  0.24197219    -0.00500
Br1481     Br  0.78979976  0.69290622  0.28990271    -0.00400
Br1482     Br  0.74468680  0.69505329  0.29677190    -0.00400
C1483       C  0.61497463  0.81475301  0.24339878    -0.01500
C1484       C  0.62761367  0.81352032  0.22843410     0.08200
C1485       C  0.62097698  0.80568991  0.21159984    -0.01600
C1486       C  0.60264022  0.79907118  0.21015621    -0.01600
C1487       C  0.59072131  0.79879696  0.22561322     0.08300
C1488       C  0.59693936  0.80718376  0.24201498    -0.01800
Br1489     Br  0.57983226  0.81095232  0.26187974    -0.00400
Br1490     Br  0.62100947  0.82843429  0.26550312    -0.00500
Br1491     Br  0.59321465  0.79252076  0.18593007    -0.00400
Br1492     Br  0.63595223  0.80423608  0.18943766    -0.00400
C1493       C  0.69637254  0.76031377  0.25979913    -0.01500
C1494       C  0.68279996  0.76692695  0.24740403     0.08200
C1495       C  0.66998334  0.75459303  0.23957034    -0.01600
C1496       C  0.67137806  0.73550771  0.24325318    -0.01600
C1497       C  0.68517353  0.72877470  0.25547957     0.08300
C1498       C  0.69742625  0.74131517  0.26397464    -0.01800
Br1499     Br  0.71639189  0.73255540  0.28057900    -0.00400
Br1500     Br  0.71409751  0.77717594  0.27056136    -0.00500
Br1501     Br  0.65379246  0.71888605  0.23192389    -0.00400
Br1502     Br  0.64968766  0.76403557  0.22491209    -0.00400
C1503       C  0.74873238  0.80872500  0.23092741    -0.01500
C1504       C  0.73796711  0.82114459  0.24138385     0.08200
C1505       C  0.74684428  0.83437744  0.25264276    -0.01600
C1506       C  0.76624088  0.83466889  0.25397061    -0.01600
C1507       C  0.77687696  0.82233404  0.24343726     0.08300
C1508       C  0.76809673  0.80978876  0.23147057    -0.01800
Br1509     Br  0.78245695  0.79369691  0.21586927    -0.00400
Br1510     Br  0.73733475  0.78936533  0.21644451    -0.00500
Br1511     Br  0.77823634  0.85294384  0.26927637    -0.00400
Br1512     Br  0.73281750  0.85317446  0.26522261    -0.00400
C1513       C  0.71556082  0.59567603  0.28394536    -0.01500
C1514       C  0.70581901  0.58167732  0.27446529     0.08200
C1515       C  0.68967630  0.58684510  0.26435374    -0.01600
C1516       C  0.68323790  0.60527716  0.26425918    -0.01600
C1517       C  0.69307863  0.61918838  0.27357256     0.08300
C1518       C  0.70936798  0.61426918  0.28336584    -0.01800
Br1519     Br  0.72350241  0.63293457  0.29612762    -0.00400
Br1520     Br  0.73666108  0.58950974  0.29894286    -0.00500
Br1521     Br  0.65987947  0.61124670  0.25266622    -0.00400
Br1522     Br  0.67582831  0.56862423  0.25053702    -0.00400
C1523       C  0.76159897  0.56225455  0.24255494    -0.01500
C1524       C  0.77689066  0.55296256  0.25046312     0.08200
C1525       C  0.77518149  0.54633187  0.26874574    -0.01600
C1526       C  0.75864971  0.54890288  0.27863244    -0.01600
C1527       C  0.74220966  0.55422432  0.26936323     0.08300
C1528       C  0.74398246  0.56097074  0.25098536    -0.01800
Br1529     Br  0.72267296  0.56598048  0.23591540    -0.00400
Br1530     Br  0.76455388  0.57765952  0.22097142    -0.00500
Br1531     Br  0.75951516  0.54701537  0.30509221    -0.00400
Br1532     Br  0.79553961  0.53393030  0.28067085    -0.00400
C1533       C  0.81270331  0.59072851  0.22104384    -0.01500
C1534       C  0.80907703  0.58184787  0.23814226     0.08200
C1535       C  0.81145647  0.59182563  0.25454884    -0.01600
C1536       C  0.81765800  0.61032765  0.25395411    -0.01600
C1537       C  0.82305845  0.61865926  0.23691312     0.08300
C1538       C  0.82019571  0.60872048  0.22041355    -0.01800
Br1539     Br  0.82756884  0.61887423  0.19675032    -0.00400
Br1540     Br  0.80846657  0.57762417  0.19821093    -0.00500
Br1541     Br  0.81748312  0.62407601  0.27678327    -0.00400
Br1542     Br  0.80750607  0.58000090  0.27809554    -0.00400
C1543       C  0.73766293  0.49335444  0.31287586    -0.01500
C1544       C  0.74124619  0.48034329  0.29888019     0.08200
C1545       C  0.74491940  0.48774102  0.28126031    -0.01600
C1546       C  0.73774352  0.50523086  0.27608287    -0.01600
C1547       C  0.72987593  0.51679248  0.28953335     0.08300
C1548       C  0.73097565  0.51106592  0.30827294    -0.01800
Br1549     Br  0.72241730  0.52687662  0.32788919    -0.00400
Br1550     Br  0.74389108  0.48761268  0.33825904    -0.00500
Br1551     Br  0.73760146  0.51214768  0.25045586    -0.00400
Br1552     Br  0.76760049  0.48075543  0.27014690    -0.00400
C1553       C  0.79127410  0.48126796  0.23270983    -0.01500
C1554       C  0.77566632  0.48003007  0.22104225     0.08200
C1555       C  0.76746544  0.49669284  0.21460809    -0.01600
C1556       C  0.77525310  0.51396871  0.21915953    -0.01600
C1557       C  0.78966771  0.51518826  0.23224073     0.08300
C1558       C  0.79742409  0.49856243  0.23922441    -0.01800
Br1559     Br  0.81781118  0.49916404  0.25659956    -0.00400
Br1560     Br  0.80629691  0.45992148  0.23771263    -0.00500
Br1561     Br  0.76905380  0.53497814  0.20393903    -0.00400
Br1562     Br  0.74671033  0.49622903  0.19767166    -0.00400
C1563       C  0.77005875  0.43224400  0.25091211    -0.01500
C1564       C  0.75991661  0.44205720  0.23729780     0.08200
C1565       C  0.74271819  0.44969179  0.24239241    -0.01600
C1566       C  0.73656286  0.44879292  0.26087258    -0.01600
C1567       C  0.74843092  0.44217788  0.27504503     0.08300
C1568       C  0.76507871  0.43344625  0.26979720    -0.01800
Br1569     Br  0.78209501  0.42475988  0.28831214    -0.00400
Br1570     Br  0.79008726  0.41634730  0.24387931    -0.00500
Br1571     Br  0.71178411  0.45670495  0.26662675    -0.00400
Br1572     Br  0.72701405  0.46065425  0.22382971    -0.00400
C1573       C  0.75291352  0.18761858  0.23726627    -0.01500
C1574       C  0.76047408  0.17398553  0.22551158     0.08200
C1575       C  0.77139307  0.15966307  0.23325637    -0.01600
C1576       C  0.77508537  0.15926669  0.25237420    -0.01600
C1577       C  0.76767448  0.17296288  0.26391390     0.08300
C1578       C  0.75666040  0.18712650  0.25631942    -0.01800
Br1579     Br  0.74710443  0.20629193  0.27209880    -0.00400
Br1580     Br  0.73733146  0.20728781  0.22776948    -0.00500
Br1581     Br  0.78940302  0.13927221  0.26289821    -0.00400
Br1582     Br  0.77980431  0.13942683  0.21820624    -0.00400
C1583       C  0.75642486  0.38679468  0.32711229    -0.01500
C1584       C  0.74726763  0.37254993  0.31751202     0.08200
C1585       C  0.73595811  0.37735831  0.30213377    -0.01600
C1586       C  0.73375590  0.39611027  0.29667826    -0.01600
C1587       C  0.74263084  0.41031680  0.30651438     0.08300
C1588       C  0.75397925  0.40548570  0.32179739    -0.01800
Br1589     Br  0.76547835  0.42471574  0.33627678    -0.00400
Br1590     Br  0.77115843  0.38085883  0.34863642    -0.00500
Br1591     Br  0.71782746  0.40256632  0.27623431    -0.00400
Br1592     Br  0.72340637  0.35841978  0.28823175    -0.00400
C1593       C  0.78113805  0.23676846  0.31054173    -0.01500
C1594       C  0.77210359  0.22493994  0.32324561     0.08200
C1595       C  0.76100062  0.23244641  0.33727387    -0.01600
C1596       C  0.75820132  0.25160335  0.33805509    -0.01600
C1597       C  0.76674057  0.26340531  0.32503377     0.08300
C1598       C  0.77846281  0.25599568  0.31144984    -0.01800
Br1599     Br  0.78985772  0.27196918  0.29317502    -0.00400
Br1600     Br  0.79623893  0.22674064  0.29110352    -0.00500
Br1601     Br  0.74308155  0.26157542  0.35743481    -0.00400
Br1602     Br  0.75018439  0.21667160  0.35607336    -0.00400
C1603       C  0.78336862  0.40567514  0.19457562    -0.01500
C1604       C  0.76758172  0.41314680  0.20324088     0.08200
C1605       C  0.75183226  0.40184176  0.20537745    -0.01600
C1606       C  0.75159845  0.38364695  0.19829227    -0.01600
C1607       C  0.76668390  0.37701049  0.18768642     0.08300
C1608       C  0.78252032  0.38840986  0.18579405    -0.01800
Br1609     Br  0.80257594  0.38163074  0.16960133    -0.00400
Br1610     Br  0.80625979  0.41965143  0.19405072    -0.00500
Br1611     Br  0.73058828  0.36800998  0.20391955    -0.00400
Br1612     Br  0.73030266  0.41131075  0.21753800    -0.00400
C1613       C  0.77376640  0.25603495  0.18721116    -0.01500
C1614       C  0.76828609  0.26739245  0.17227607     0.08200
C1615       C  0.76233990  0.25937236  0.15566169    -0.01600
C1616       C  0.76008025  0.24015463  0.15465417    -0.01600
C1617       C  0.76267277  0.22911704  0.17050658     0.08300
C1618       C  0.77091634  0.23681503  0.18630973    -0.01800
Br1619     Br  0.77920690  0.22096694  0.20617407    -0.00400
Br1620     Br  0.78476549  0.26673746  0.20894254    -0.00500
Br1621     Br  0.75559167  0.22889600  0.13118445    -0.00400
Br1622     Br  0.75793916  0.27456240  0.13407643    -0.00400
C1623       C  0.75115667  0.30522484  0.23983816    -0.01500
C1624       C  0.76112343  0.31970086  0.23124090     0.08200
C1625       C  0.76891599  0.33393720  0.24191240    -0.01600
C1626       C  0.76686820  0.33367299  0.26114874    -0.01600
C1627       C  0.75753317  0.31881782  0.26990300     0.08300
C1628       C  0.74972270  0.30454099  0.25920645    -0.01800
Br1629     Br  0.73840382  0.28329199  0.27098972    -0.00400
Br1630     Br  0.74010646  0.28593271  0.22515087    -0.00500
Br1631     Br  0.77640891  0.35418682  0.27531999    -0.00400
Br1632     Br  0.78192198  0.35427182  0.23019965    -0.00400
C1633       C  0.74240707  0.10744033  0.16685049    -0.01500
C1634       C  0.73676516  0.12151584  0.17893199     0.08200
C1635       C  0.72988758  0.11652563  0.19661112    -0.01600
C1636       C  0.72784036  0.09770807  0.20170475    -0.01600
C1637       C  0.73302495  0.08370798  0.18941685     0.08300
C1638       C  0.74077059  0.08870000  0.17215036    -0.01800
Br1639     Br  0.74876472  0.06968411  0.15537405    -0.00400
Br1640     Br  0.75117126  0.11367435  0.14240543    -0.00500
Br1641     Br  0.71739053  0.09112024  0.22530532    -0.00400
Br1642     Br  0.72371709  0.13530853  0.21430871    -0.00400
C1643       C  0.76202895  0.05969300  0.22118576    -0.01500
C1644       C  0.74435313  0.05178607  0.21864788     0.08200
C1645       C  0.73423955  0.04612922  0.23440340    -0.01600
C1646       C  0.74278847  0.04563282  0.25191533    -0.01600
C1647       C  0.76094832  0.05250824  0.25437118     0.08300
C1648       C  0.76974198  0.06113840  0.23912897    -0.01800
Br1649     Br  0.79125700  0.07634501  0.24276777    -0.00400
Br1650     Br  0.77617019  0.06734654  0.20001982    -0.00500
Br1651     Br  0.72918735  0.03592909  0.27264907    -0.00400
Br1652     Br  0.70865646  0.03877231  0.23202779    -0.00400
C1653       C  0.75676278  0.09213965  0.28868188    -0.01500
C1654       C  0.77272387  0.08127224  0.28718446     0.08200
C1655       C  0.78985249  0.08876780  0.29289266    -0.01600
C1656       C  0.79068596  0.10567223  0.30241167    -0.01600
C1657       C  0.77443006  0.11629716  0.30500130     0.08300
C1658       C  0.75755355  0.10966581  0.29709665    -0.01800
Br1659     Br  0.73497600  0.12408192  0.29699740    -0.00400
Br1660     Br  0.73350817  0.08285639  0.27968996    -0.00500
Br1661     Br  0.81420904  0.11288976  0.31296724    -0.00400
Br1662     Br  0.81228135  0.07484374  0.28881770    -0.00400
C1663       C  0.73138056  0.98830021  0.21560862    -0.01500
C1664       C  0.72480749  0.97737125  0.20094626     0.08200
C1665       C  0.72636654  0.98447161  0.18266493    -0.01600
C1666       C  0.73245894  0.00275929  0.17967118    -0.01600
C1667       C  0.73556417  0.01457071  0.19476428     0.08300
C1668       C  0.73850217  0.00609065  0.21200993    -0.01800
Br1669     Br  0.76100800  0.01174575  0.22434524    -0.00400
Br1670     Br  0.72926737  0.98044394  0.24093605    -0.00500
Br1671     Br  0.73673181  0.01189821  0.15489022    -0.00400
Br1672     Br  0.71894342  0.96999568  0.16153333    -0.00400
C1673       C  0.71378173  0.89773296  0.21157302    -0.01500
C1674       C  0.70340852  0.91246495  0.21873753     0.08200
C1675       C  0.68763707  0.90833152  0.22971172    -0.01600
C1676       C  0.68178734  0.88989362  0.23252208    -0.01600
C1677       C  0.69192240  0.87519862  0.22496384     0.08300
C1678       C  0.70842773  0.87922937  0.21517055    -0.01800
Br1679     Br  0.72440770  0.85951609  0.20721319    -0.00400
Br1680     Br  0.73434266  0.90262891  0.19541359    -0.00500
Br1681     Br  0.65912502  0.88496239  0.24578171    -0.00400
Br1682     Br  0.67365950  0.92805693  0.24093622    -0.00400
C1683       C  0.77608373  0.98093744  0.26884284    -0.01500
C1684       C  0.78994252  0.97964046  0.25525564     0.08200
C1685       C  0.79816235  0.99622021  0.24853171    -0.01600
C1686       C  0.79324898  0.01344085  0.25600863    -0.01600
C1687       C  0.77833241  0.01479797  0.26840679     0.08300
C1688       C  0.76960442  0.99831502  0.27457675    -0.01800
Br1689     Br  0.75043572  0.99904319  0.29312397    -0.00400
Br1690     Br  0.76907517  0.95958887  0.28320220    -0.00500
Br1691     Br  0.80935682  0.03425331  0.25174935    -0.00400
Br1692     Br  0.81755840  0.99559761  0.23018329    -0.00400
C1693       C  0.77197316  0.94927708  0.21993441    -0.01500
C1694       C  0.77487343  0.94209720  0.23786912     0.08200
C1695       C  0.76011076  0.93240111  0.24634235    -0.01600
C1696       C  0.74197355  0.93375358  0.23895863    -0.01600
C1697       C  0.73909712  0.94081847  0.22080311     0.08300
C1698       C  0.75496009  0.94651277  0.21084380    -0.01800
Br1699     Br  0.75453652  0.94775061  0.18434829    -0.00400
Br1700     Br  0.79154778  0.96204762  0.20711145    -0.00500
Br1701     Br  0.72171908  0.92827703  0.25520668    -0.00400
Br1702     Br  0.76445191  0.91642173  0.26729815    -0.00400
C1703       C  0.81279865  0.90377314  0.26515022    -0.01500
C1704       C  0.80728982  0.91246227  0.24848604     0.08200
C1705       C  0.80829636  0.90246538  0.23199190    -0.01600
C1706       C  0.81574474  0.88439429  0.23187327    -0.01600
C1707       C  0.82297241  0.87620366  0.24840762     0.08300
C1708       C  0.82120533  0.88622347  0.26512471    -0.01800
Br1709     Br  0.83143252  0.87728736  0.28830273    -0.00400
Br1710     Br  0.80986653  0.91676356  0.28826205    -0.00500
Br1711     Br  0.81557008  0.87155896  0.20852049    -0.00400
Br1712     Br  0.80006337  0.91376477  0.20926745    -0.00400
C1713       C  0.79207844  0.30287240  0.09682787    -0.01500
C1714       C  0.77687280  0.30388122  0.08445261     0.08200
C1715       C  0.76096654  0.31347521  0.09023586    -0.01600
C1716       C  0.75934761  0.32002981  0.10850852    -0.01600
C1717       C  0.77422087  0.31812343  0.12128187     0.08300
C1718       C  0.79084514  0.30982647  0.11494511    -0.01800
Br1719     Br  0.81271940  0.30780949  0.13039582    -0.00400
Br1720     Br  0.81583528  0.29392462  0.08840374    -0.00500
Br1721     Br  0.73690030  0.33295589  0.11502541    -0.00400
Br1722     Br  0.74274055  0.32095138  0.07230322    -0.00400
C1723       C  0.76877135  0.25687001  0.06207051    -0.01500
C1724       C  0.76088309  0.27337387  0.05483512     0.08200
C1725       C  0.74222557  0.27264930  0.04909403    -0.01600
C1726       C  0.73184863  0.25616090  0.05099476    -0.01600
C1727       C  0.74047674  0.23910284  0.05509503     0.08300
C1728       C  0.75903465  0.23974404  0.06134417    -0.01800
Br1729     Br  0.77191718  0.21746681  0.06797512    -0.00400
Br1730     Br  0.79396478  0.25694263  0.07050891    -0.00500
Br1731     Br  0.70538470  0.25757828  0.05046235    -0.00400
Br1732     Br  0.73070845  0.29345182  0.03717007    -0.00400
C1733       C  0.72183734  0.21052644  0.09728164    -0.01500
C1734       C  0.73100735  0.20300353  0.08201884     0.08200
C1735       C  0.74128242  0.18647066  0.08464094    -0.01600
C1736       C  0.74363289  0.17857413  0.10242029    -0.01600
C1737       C  0.73494001  0.18645685  0.11788863     0.08300
C1738       C  0.72318116  0.20204179  0.11492517    -0.01800
Br1739     Br  0.70872892  0.21252617  0.13471451    -0.00400
Br1740     Br  0.70642528  0.23199419  0.09372431    -0.00500
Br1741     Br  0.75707555  0.15564508  0.10505448    -0.00400
Br1742     Br  0.75120894  0.17370148  0.06350170    -0.00400
C1743       C  0.77714672  0.30647809  0.98589281    -0.01500
C1744       C  0.78580461  0.29095486  0.97800310     0.08200
C1745       C  0.78789541  0.27475345  0.98884944    -0.01600
C1746       C  0.78244734  0.27446069  0.00755553    -0.01600
C1747       C  0.77468302  0.29029723  0.01567456     0.08300
C1748       C  0.77015496  0.30546384  0.00399104    -0.01800
Br1749     Br  0.75772160  0.32675688  0.01408965    -0.00400
Br1750     Br  0.77816940  0.33043712  0.97377599    -0.00500
Br1751     Br  0.78831180  0.25316226  0.02235739    -0.00400
Br1752     Br  0.80226343  0.25444630  0.97971047    -0.00400
C1753       C  0.82910209  0.27009234  0.91218377    -0.01500
C1754       C  0.81199210  0.27943911  0.91446096     0.08200
C1755       C  0.80137480  0.28367132  0.89866676    -0.01600
C1756       C  0.80769924  0.27881766  0.88095115    -0.01600
C1757       C  0.82489497  0.26973302  0.87865979     0.08300
C1758       C  0.83531426  0.26500641  0.89445020    -0.01800
Br1759     Br  0.85872251  0.25261936  0.89173307    -0.00400
Br1760     Br  0.84440310  0.26431064  0.93341019    -0.00500
Br1761     Br  0.79237441  0.28476801  0.85983942    -0.00400
Br1762     Br  0.77900698  0.29780880  0.90084897    -0.00400
C1763       C  0.74262877  0.22104723  0.00651774    -0.01500
C1764       C  0.72604637  0.22552933  0.01569327     0.08200
C1765       C  0.71094067  0.23202156  0.00494951    -0.01600
C1766       C  0.71257091  0.23435846  0.98567596    -0.01600
C1767       C  0.72861035  0.22860461  0.97635351     0.08300
C1768       C  0.74383960  0.22236836  0.98702307    -0.01800
Br1769     Br  0.76586509  0.21371537  0.97523282    -0.00400
Br1770     Br  0.76238840  0.20928553  0.02013273    -0.00500
Br1771     Br  0.69164897  0.24338162  0.97174355    -0.00400
Br1772     Br  0.68661351  0.23429994  0.01565527    -0.00400
C1773       C  0.77783762  0.25267913  0.93775675    -0.01500
C1774       C  0.77646888  0.27190021  0.94096951     0.08200
C1775       C  0.75859172  0.27980509  0.94255457    -0.01600
C1776       C  0.74271137  0.26852655  0.94331480    -0.01600
C1777       C  0.74429192  0.24943582  0.94095572     0.08300
C1778       C  0.76178118  0.24166179  0.93719697    -0.01800
Br1779     Br  0.76337885  0.21634891  0.92871193    -0.00400
Br1780     Br  0.80125624  0.24068039  0.93451381    -0.00500
Br1781     Br  0.71862160  0.27903861  0.94707916    -0.00400
Br1782     Br  0.75531877  0.30614331  0.94185144    -0.00400
C1783       C  0.69135104  0.23986830  0.90792685    -0.01500
C1784       C  0.71085390  0.24105261  0.91099059     0.08200
C1785       C  0.72156172  0.25012377  0.89709907    -0.01600
C1786       C  0.71307662  0.25685036  0.88077130    -0.01600
C1787       C  0.69470961  0.25201355  0.87656931     0.08300
C1788       C  0.68362616  0.24433767  0.89050425    -0.01800
Br1789     Br  0.65775827  0.24008207  0.88542203    -0.00400
Br1790     Br  0.67469842  0.23176718  0.92716650    -0.00500
Br1791     Br  0.72702115  0.27182953  0.86343783    -0.00400
Br1792     Br  0.74803404  0.25114834  0.89754428    -0.00400
C1793       C  0.82788171  0.20662912  0.59496547    -0.01500
C1794       C  0.82337279  0.22232868  0.58399896     0.08200
C1795       C  0.82506253  0.23993623  0.59197105    -0.01600
C1796       C  0.83084573  0.24198098  0.61056109    -0.01600
C1797       C  0.83558013  0.22620288  0.62169297     0.08300
C1798       C  0.83392613  0.20844879  0.61346832    -0.01800
Br1799     Br  0.84105627  0.18606412  0.62652991    -0.00400
Br1800     Br  0.82713595  0.18221877  0.58405311    -0.00500
Br1801     Br  0.83224630  0.26705041  0.61980217    -0.00400
Br1802     Br  0.82116623  0.26163546  0.57686838    -0.00400
C1803       C  0.76750850  0.25393290  0.54808883    -0.01500
C1804       C  0.75272511  0.24224877  0.55382016     0.08200
C1805       C  0.75758239  0.22470492  0.56138713    -0.01600
C1806       C  0.77632958  0.21944744  0.56331751    -0.01600
C1807       C  0.79030408  0.22931741  0.55385374     0.08300
C1808       C  0.78562884  0.24677155  0.54623589    -0.01800
Br1809     Br  0.80380754  0.26090090  0.53278018    -0.00400
Br1810     Br  0.76359749  0.27993847  0.54346859    -0.00500
Br1811     Br  0.78234759  0.19860814  0.57885876    -0.00400
Br1812     Br  0.73931212  0.20594686  0.56604776    -0.00400
C1813       C  0.70233298  0.22875539  0.58699314    -0.01500
C1814       C  0.71520994  0.24204147  0.58003043     0.08200
C1815       C  0.72176228  0.25574210  0.59221376    -0.01600
C1816       C  0.71632342  0.25573623  0.61098687    -0.01600
C1817       C  0.70291389  0.24295429  0.61767468     0.08300
C1818       C  0.69608327  0.22940763  0.60545480    -0.01800
Br1819     Br  0.67697132  0.21233536  0.61342386    -0.00400
Br1820     Br  0.69218828  0.20976361  0.57113377    -0.00500
Br1821     Br  0.72813095  0.27303476  0.62749265    -0.00400
Br1822     Br  0.73612284  0.27622223  0.58290591    -0.00400
C1823       C  0.73919857  0.28383391  0.49228841    -0.01500
C1824       C  0.75435142  0.27495964  0.48370939     0.08200
C1825       C  0.76120276  0.25862374  0.49187434    -0.01600
C1826       C  0.75146745  0.24978046  0.50636716    -0.01600
C1827       C  0.73736281  0.25917856  0.51567917     0.08300
C1828       C  0.73185271  0.27675736  0.50889524    -0.01800
Br1829     Br  0.71498335  0.29193213  0.52284996    -0.00400
Br1830     Br  0.72762934  0.30541890  0.48130522    -0.00500
Br1831     Br  0.75586816  0.22430688  0.51201139    -0.00400
Br1832     Br  0.78505483  0.25003523  0.48506243    -0.00400
C1833       C  0.77955183  0.30650985  0.40873558    -0.01500
C1834       C  0.76567672  0.29610549  0.41808935     0.08200
C1835       C  0.74843231  0.29394528  0.40910129    -0.01600
C1836       C  0.74529577  0.30120034  0.39102854    -0.01600
C1837       C  0.75965637  0.31049999  0.38110122     0.08300
C1838       C  0.77675835  0.31335299  0.39055691    -0.01800
Br1839     Br  0.79664038  0.32805832  0.37985372    -0.00400
Br1840     Br  0.80236618  0.31320220  0.42122956    -0.00500
Br1841     Br  0.72048782  0.29927572  0.38107927    -0.00400
Br1842     Br  0.72805405  0.28311443  0.42246923    -0.00400
C1843       C  0.80962970  0.21344373  0.48227025    -0.01500
C1844       C  0.79413814  0.20173830  0.48007033     0.08200
C1845       C  0.78601888  0.19413725  0.49625770    -0.01600
C1846       C  0.79286549  0.19870909  0.51399020    -0.01600
C1847       C  0.80654057  0.21251899  0.51618055     0.08300
C1848       C  0.81498058  0.21973545  0.49995379    -0.01800
Br1849     Br  0.83466659  0.23785921  0.50160418    -0.00400
Br1850     Br  0.82552664  0.21867246  0.46165383    -0.00500
Br1851     Br  0.78554552  0.18358944  0.53465949    -0.00400
Br1852     Br  0.76632421  0.17604596  0.49436833    -0.00400
C1853       C  0.78828076  0.23363291  0.43420448    -0.01500
C1854       C  0.77754616  0.21967928  0.44269486     0.08200
C1855       C  0.76038022  0.22501922  0.45036996    -0.01600
C1856       C  0.75449664  0.24380990  0.44979906    -0.01600
C1857       C  0.76693564  0.25810558  0.44438058     0.08300
C1858       C  0.78419821  0.25249490  0.43706769    -0.01800
Br1859     Br  0.80455013  0.26943394  0.43545583    -0.00400
Br1860     Br  0.80870131  0.22751867  0.41857395    -0.00500
Br1861     Br  0.72963700  0.24964218  0.45720038    -0.00400
Br1862     Br  0.74496489  0.20675325  0.46220753    -0.00400
C1863       C  0.76655286  0.18424368  0.40388953    -0.01500
C1864       C  0.78401445  0.18684975  0.41207174     0.08200
C1865       C  0.79989212  0.18242665  0.40156869    -0.01600
C1866       C  0.79837870  0.17640534  0.38305742    -0.01600
C1867       C  0.78071062  0.17384445  0.37465358     0.08300
C1868       C  0.76479031  0.17709854  0.38581731    -0.01800
Br1869     Br  0.74010827  0.17003175  0.37799744    -0.00400
Br1870     Br  0.74470461  0.18892180  0.41817829    -0.00500
Br1871     Br  0.82108616  0.17018872  0.37046170    -0.00400
Br1872     Br  0.82407931  0.18291915  0.41324518    -0.00400
loop_ 
_geom_bond_atom_site_label_1 
_geom_bond_atom_site_label_2 
_geom_bond_distance 
_geom_bond_site_symmetry_2 
_ccdc_geom_bond_type 
N1            C5   1.380       .  A
N1            C2   1.380       .  A
N1         C1854   1.466       .  S
C2            C3   1.381       .  A
C2         C1864   1.501       .  S
C3            C4   1.361       .  A
C3            H6   1.081       .  S
C4            C5   1.380       .  A
C4            H7   1.081       .  S
C5         C1844   1.503       .  S
N8           C12   1.379       .  A
N8            C9   1.384       .  A
N8         C1857   1.471       .  S
C9           C10   1.382       .  A
C9         C1834   1.513       .  S
C10          C11   1.360       .  A
C10          H13   1.083       .  S
C11          C12   1.379       .  A
C11          H14   1.084       .  S
C12        C1824   1.503       .  S
N15          C19   1.378       .  A
N15          C16   1.383       .  A
N15        C1804   1.470       .  S
C16          C17   1.383       .  A
C16        C1814   1.509       .  S
C17          C18   1.359       .  A
C17          H20   1.083       .  S
C18          C19   1.378       .  A
C18          H21   1.084       .  S
C19        C1827   1.499       .  S
N22          C26   1.380       .  A
N22          C23   1.378       .  A
N22        C1807   1.462       .  S
C23          C24   1.381       .  A
C23        C1794   1.501       .  S
C24          C25   1.362       .  A
C24          H27   1.082       .  S
C25          C26   1.381       .  A
C25          H28   1.084       .  S
C26        C1847   1.507       .  S
N29          C33   1.365       .  A
N29          C30   1.372       .  A
N29        C1777   1.437       .  S
C30          C31   1.388       .  A
C30        C1784   1.522       .  S
C31          C32   1.375       .  A
C31          H34   1.082       .  S
C32          C33   1.379       .  A
C32          H35   1.083       .  S
C33        C1767   1.504       .  S
N36          C40   1.366       .  A
N36          C37   1.372       .  A
N36        C1774   1.453       .  S
C37          C38   1.384       .  A
C37        C1754   1.500       .  S
C38          C39   1.371       .  A
C38          H41   1.083       .  S
C39          C40   1.380       .  A
C39          H42   1.082       .  S
C40        C1744   1.495       .  S
N43          C47   1.377       .  A
N43          C44   1.379       .  A
N43        C1727   1.468       .  S
C44          C45   1.381       .  A
C44        C1734   1.494       .  S
C45          C46   1.360       .  A
C45          H48   1.080       .  S
C46          C47   1.379       .  A
C46          H49   1.082       .  S
C47        C1764   1.498       .  S
N50          C54   1.375       .  A
N50          C51   1.382       .  A
N50        C1724   1.464       .  S
C51          C52   1.379       .  A
C51        C1714   1.498       .  S
C52          C53   1.355       .  A
C52          H55   1.083       .  S
C53          C54   1.382       .  A
C53          H56   1.081       .  S
C54        C1747   1.496       .  S
N57          C61   1.373       .  A
N57          C58   1.371       .  A
N57        C1694   1.458       .  S
C58          C59   1.382       .  A
C58        C1704   1.488       .  S
C59          C60   1.359       .  A
C59          H62   1.082       .  S
C60          C61   1.380       .  A
C60          H63   1.082       .  S
C61        C1684   1.494       .  S
N64          C68   1.376       .  A
N64          C65   1.378       .  A
N64        C1697   1.467       .  S
C65          C66   1.382       .  A
C65        C1674   1.495       .  S
C66          C67   1.359       .  A
C66          H69   1.081       .  S
C67          C68   1.378       .  A
C67          H70   1.081       .  S
C68        C1664   1.492       .  S
N71          C75   1.371       .  A
N71          C72   1.370       .  A
N71        C1647   1.457       .  S
C72          C73   1.383       .  A
C72        C1654   1.487       .  S
C73          C74   1.361       .  A
C73          H76   1.081       .  S
C74          C75   1.379       .  A
C74          H77   1.081       .  S
C75        C1687   1.490       .  S
N78          C82   1.374       .  A
N78          C79   1.368       .  A
N78        C1644   1.451       .  S
C79          C80   1.377       .  A
C79        C1637   1.488       .  S
C80          C81   1.362       .  A
C80          H83   1.081       .  S
C81          C82   1.388       .  A
C81          H84   1.082       .  S
C82        C1667   1.511       .  S
O85         Ni93   1.911       .  S
O85          C95   1.280       .  A
O86         Ni93   1.924       .  S
O86          C96   1.282       .  A
O87         Ni93   1.910       .  S
O87          C97   1.280       .  A
O88         Ni93   1.910       .  S
O88          C98   1.278       .  A
O89         Ni94   1.911       .  S
O89          C98   1.280       .  A
O90         Ni94   1.929       .  S
O90          C97   1.283       .  A
O91         Ni94   1.917       .  S
O91          C96   1.280       .  A
O92         Ni94   1.912       .  S
O92          C95   1.279       .  A
Ni93        Ni94   2.382       .  S
C95        C1624   1.468       .  S
C96        C1717   1.511       .  S
C97        C1607   1.500       .  S
C98        C1614   1.464       .  S
O99        Ni107   1.908       .  S
O99         C109   1.279       .  A
O100       Ni107   1.927       .  S
O100        C110   1.283       .  A
O101       Ni107   1.912       .  S
O101        C111   1.279       .  A
O102       Ni107   1.899       .  S
O102        C112   1.277       .  A
O103       Ni108   1.925       .  S
O103        C112   1.283       .  A
O104       Ni108   1.944       .  S
O104        C111   1.286       .  A
O105       Ni108   1.931       .  S
O105        C110   1.283       .  A
O106       Ni108   1.912       .  S
O106        C109   1.280       .  A
Ni107      Ni108   2.381       .  S
C109       C1597   1.470       .  S
C110       C1584   1.499       .  S
C111       C1837   1.526       .  S
C112       C1627   1.473       .  S
O113       Ni121   1.899       .  S
O113        C123   1.276       .  A
O114       Ni121   1.910       .  S
O114        C124   1.277       .  A
O115       Ni121   1.928       .  S
O115        C125   1.284       .  A
O116       Ni121   1.931       .  S
O116        C126   1.285       .  A
O117       Ni122   1.901       .  S
O117        C126   1.274       .  A
O118       Ni122   1.916       .  S
O118        C125   1.280       .  A
O119       Ni122   1.944       .  S
O119        C124   1.289       .  A
O120       Ni122   1.933       .  S
O120        C123   1.286       .  A
Ni121      Ni122   2.384       .  S
C123       C1574   1.486       .  S
C124       C1737   1.506       .  S
C125       C1634   1.490       .  S
C126       C1617   1.467       .  S
O127       Ni135   1.901       .  S
O127        C137   1.278       .  A
O128       Ni135   1.909       .  S
O128        C138   1.277       .  A
O129       Ni135   1.916       .  S
O129        C139   1.279       .  A
O130       Ni135   1.914       .  S
O130        C140   1.281       .  A
O131       Ni136   1.920       .  S
O131        C140   1.281       .  A
O132       Ni136   1.936       .  S
O132        C139   1.284       .  A
O133       Ni136   1.922       .  S
O133        C138   1.282       .  A
O134       Ni136   1.913       .  S
O134        C137   1.280       .  A
Ni135      Ni136   2.377       .  S
C137       C1594   1.470       .  S
C138       C1657   1.505       .  S
C139       C1867   1.524       .  S
C140       C1577   1.475       .  S
N141        C145   1.374       .  A
N141        C142   1.374       .  A
N141       C1564   1.460       .  S
C142        C143   1.383       .  A
C142       C1604   1.493       .  S
C143        C144   1.359       .  A
C143        H146   1.082       .  S
C144        C145   1.379       .  A
C144        H147   1.082       .  S
C145       C1554   1.495       .  S
N148        C152   1.383       .  A
N148        C149   1.375       .  A
N148       C1567   1.459       .  S
C149        C150   1.373       .  A
C149       C1587   1.494       .  S
C150        C151   1.358       .  A
C150        H153   1.082       .  S
C151        C152   1.389       .  A
C151        H154   1.080       .  S
C152       C1544   1.525       .  S
N155        C159   1.372       .  A
N155        C156   1.369       .  A
N155       C1524   1.457       .  S
C156        C157   1.381       .  A
C156       C1534   1.484       .  S
C157        C158   1.361       .  A
C157        H160   1.083       .  S
C158        C159   1.381       .  A
C158        H161   1.082       .  S
C159       C1557   1.493       .  S
N162        C166   1.378       .  A
N162        C163   1.383       .  A
N162       C1527   1.465       .  S
C163        C164   1.383       .  A
C163       C1514   1.508       .  S
C164        C165   1.359       .  A
C164        H167   1.082       .  S
C165        C166   1.378       .  A
C165        H168   1.082       .  S
C166       C1547   1.498       .  S
O169       Ni177   1.894       .  S
O169        C179   1.276       .  A
O170       Ni177   1.905       .  S
O170        C180   1.276       .  A
O171       Ni177   1.923       .  S
O171        C181   1.282       .  A
O172       Ni177   1.923       .  S
O172        C182   1.282       .  A
O173       Ni178   1.903       .  S
O173        C182   1.277       .  A
O174       Ni178   1.921       .  S
O174        C181   1.282       .  A
O175       Ni178   1.932       .  S
O175        C180   1.284       .  A
O176       Ni178   1.920       .  S
O176        C179   1.282       .  A
Ni177      Ni178   2.381       .  S
C179       C1504   1.478       .  S
C180       C1484   1.516       .  S
C181       C1677   1.491       .  S
C182       C1494   1.470       .  S
O183       Ni191   1.904       .  S
O183        C193   1.277       .  A
O184       Ni191   1.913       .  S
O184        C194   1.280       .  A
O185       Ni191   1.931       .  S
O185        C195   1.285       .  A
O186       Ni191   1.929       .  S
O186        C196   1.283       .  A
O187       Ni192   1.903       .  S
O187        C196   1.279       .  A
O188       Ni192   1.925       .  S
O188        C195   1.282       .  A
O189       Ni192   1.911       .  S
O189        C194   1.281       .  A
O190       Ni192   1.905       .  S
O190        C193   1.279       .  A
Ni191      Ni192   2.387       .  S
C193       C1464   1.455       .  S
C194       C1537   1.492       .  S
C195       C1454   1.497       .  S
C196       C1477   1.476       .  S
O197       Ni205   1.913       .  S
O197        C207   1.278       .  A
O198       Ni205   1.923       .  S
O198        C208   1.282       .  A
O199       Ni205   1.934       .  S
O199        C209   1.285       .  A
O200       Ni205   1.926       .  S
O200        C210   1.284       .  A
O201       Ni206   1.903       .  S
O201        C210   1.277       .  A
O202       Ni206   1.921       .  S
O202        C209   1.282       .  A
O203       Ni206   1.929       .  S
O203        C208   1.284       .  A
O204       Ni206   1.914       .  S
O204        C207   1.283       .  A
Ni205      Ni206   2.384       .  S
C207       C1474   1.486       .  S
C208       C1444   1.498       .  S
C209       C1517   1.497       .  S
C210       C1497   1.478       .  S
O211       Ni219   1.908       .  S
O211        C221   1.279       .  A
O212       Ni219   1.928       .  S
O212        C222   1.283       .  A
O213       Ni219   1.909       .  S
O213        C223   1.279       .  A
O214       Ni219   1.904       .  S
O214        C224   1.277       .  A
O215       Ni220   1.909       .  S
O215        C224   1.279       .  A
O216       Ni220   1.920       .  S
O216        C223   1.281       .  A
O217       Ni220   1.921       .  S
O217        C222   1.281       .  A
O218       Ni220   1.911       .  S
O218        C221   1.280       .  A
Ni219      Ni220   2.382       .  S
C221       C1507   1.470       .  S
C222       C1434   1.504       .  S
C223       C1707   1.507       .  S
C224       C1467   1.456       .  S
N225        C229   1.373       .  A
N225        C226   1.379       .  A
N225       C1417   1.468       .  S
C226        C227   1.381       .  A
C226       C1424   1.491       .  S
C227        C228   1.359       .  A
C227        H230   1.083       .  S
C228        C229   1.378       .  A
C228        H231   1.081       .  S
C229       C1404   1.488       .  S
N232        C236   1.370       .  A
N232        C233   1.378       .  A
N232       C1414   1.455       .  S
C233        C234   1.381       .  A
C233       C1394   1.504       .  S
C234        C235   1.363       .  A
C234        H237   1.081       .  S
C235        C236   1.383       .  A
C235        H238   1.082       .  S
C236       C1384   1.499       .  S
N239        C243   1.374       .  A
N239        C240   1.379       .  A
N239       C1374   1.466       .  S
C240        C241   1.382       .  A
C240       C1447   1.496       .  S
C241        C242   1.360       .  A
C241        H244   1.084       .  S
C242        C243   1.378       .  A
C242        H245   1.081       .  S
C243       C1387   1.492       .  S
N246        C250   1.372       .  A
N246        C247   1.378       .  A
N246       C1377   1.460       .  S
C247        C248   1.380       .  A
C247       C1487   1.496       .  S
C248        C249   1.359       .  A
C248        H251   1.083       .  S
C249        C250   1.382       .  A
C249        H252   1.082       .  S
C250       C1407   1.495       .  S
N253        C257   1.374       .  A
N253        C254   1.375       .  A
N253       C1364   1.459       .  S
C254        C255   1.381       .  A
C254       C1457   1.497       .  S
C255        C256   1.367       .  A
C255        H258   1.082       .  S
C256        C257   1.381       .  A
C256        H259   1.080       .  S
C257       C1354   1.503       .  S
N260        C264   1.372       .  A
N260        C261   1.380       .  A
N260       C1367   1.459       .  S
C261        C262   1.380       .  A
C261       C1437   1.499       .  S
C262        C263   1.363       .  A
C262        H265   1.081       .  S
C263        C264   1.382       .  A
C263        H266   1.082       .  S
C264       C1344   1.498       .  S
N267        C271   1.371       .  A
N267        C268   1.377       .  A
N267       C1324   1.457       .  S
C268        C269   1.381       .  A
C268       C1334   1.500       .  S
C269        C270   1.367       .  A
C269        H272   1.081       .  S
C270        C271   1.382       .  A
C270        H273   1.082       .  S
C271       C1357   1.501       .  S
N274        C278   1.373       .  A
N274        C275   1.377       .  A
N274       C1327   1.463       .  S
C275        C276   1.381       .  A
C275       C1314   1.494       .  S
C276        C277   1.363       .  A
C276        H279   1.081       .  S
C277        C278   1.379       .  A
C277        H280   1.081       .  S
C278       C1347   1.494       .  S
N281        C285   1.379       .  A
N281        C282   1.377       .  A
N281       C1294   1.460       .  S
C282        C283   1.382       .  A
C282       C1304   1.499       .  S
C283        C284   1.360       .  A
C283        H286   1.082       .  S
C284        C285   1.380       .  A
C284        H287   1.082       .  S
C285       C1284   1.504       .  S
N288        C292   1.381       .  A
N288        C289   1.374       .  A
N288       C1297   1.453       .  S
C289        C290   1.376       .  A
C289       C1274   1.499       .  S
C290        C291   1.361       .  A
C290        H293   1.081       .  S
C291        C292   1.388       .  A
C291        H294   1.082       .  S
C292       C1264   1.523       .  S
N295        C299   1.370       .  A
N295        C296   1.375       .  A
N295       C1244   1.444       .  S
C296        C297   1.389       .  A
C296       C1257   1.521       .  S
C297        C298   1.371       .  A
C297        H300   1.081       .  S
C298        C299   1.376       .  A
C298        H301   1.084       .  S
C299       C1287   1.505       .  S
N302        C306   1.372       .  A
N302        C303   1.378       .  A
N302       C1247   1.459       .  S
C303        C304   1.381       .  A
C303       C1237   1.504       .  S
C304        C305   1.367       .  A
C304        H307   1.085       .  S
C305        C306   1.381       .  A
C305        H308   1.082       .  S
C306       C1267   1.499       .  S
O309       Ni317   1.913       .  S
O309        C319   1.279       .  A
O310       Ni317   1.931       .  S
O310        C320   1.284       .  A
O311       Ni317   1.920       .  S
O311        C321   1.281       .  A
O312       Ni317   1.907       .  S
O312        C322   1.279       .  A
O313       Ni318   1.919       .  S
O313        C322   1.282       .  A
O314       Ni318   1.928       .  S
O314        C321   1.282       .  A
O315       Ni318   1.921       .  S
O315        C320   1.281       .  A
O316       Ni318   1.916       .  S
O316        C319   1.281       .  A
Ni317      Ni318   2.382       .  S
C319       C1214   1.469       .  S
C320       C1234   1.494       .  S
C321       C1337   1.516       .  S
C322       C1224   1.481       .  S
O323       Ni331   1.902       .  S
O323        C333   1.277       .  A
O324       Ni331   1.928       .  S
O324        C334   1.282       .  A
O325       Ni331   1.930       .  S
O325        C335   1.285       .  A
O326       Ni331   1.913       .  S
O326        C336   1.282       .  A
O327       Ni332   1.911       .  S
O327        C336   1.278       .  A
O328       Ni332   1.922       .  S
O328        C335   1.282       .  A
O329       Ni332   1.938       .  S
O329        C334   1.286       .  A
O330       Ni332   1.919       .  S
O330        C333   1.282       .  A
Ni331      Ni332   2.387       .  S
C333       C1204   1.478       .  S
C334       C1254   1.498       .  S
C335       C1427   1.496       .  S
C336       C1227   1.473       .  S
O337       Ni345   1.908       .  S
O337        C347   1.279       .  A
O338       Ni345   1.918       .  S
O338        C348   1.281       .  A
O339       Ni345   1.926       .  S
O339        C349   1.282       .  A
O340       Ni345   1.915       .  S
O340        C350   1.281       .  A
O341       Ni346   1.912       .  S
O341        C350   1.280       .  A
O342       Ni346   1.933       .  S
O342        C349   1.285       .  A
O343       Ni346   1.932       .  S
O343        C348   1.284       .  A
O344       Ni346   1.911       .  S
O344        C347   1.280       .  A
Ni345      Ni346   2.383       .  S
C347       C1194   1.464       .  S
C348       C1317   1.499       .  S
C349       C1187   1.519       .  S
C350       C1217   1.477       .  S
O351       Ni359   1.894       .  S
O351        C361   1.277       .  A
O352       Ni359   1.908       .  S
O352        C362   1.277       .  A
O353       Ni359   1.919       .  S
O353        C363   1.281       .  A
O354       Ni359   1.913       .  S
O354        C364   1.280       .  A
O355       Ni360   1.913       .  S
O355        C364   1.279       .  A
O356       Ni360   1.931       .  S
O356        C363   1.284       .  A
O357       Ni360   1.934       .  S
O357        C362   1.285       .  A
O358       Ni360   1.915       .  S
O358        C361   1.281       .  A
Ni359      Ni360   2.382       .  S
C361       C1197   1.470       .  S
C362       C1397   1.517       .  S
C363       C1174   1.494       .  S
C364       C1207   1.468       .  S
N365        C369   1.381       .  A
N365        C366   1.381       .  A
N365       C1154   1.463       .  S
C366        C367   1.382       .  A
C366       C1164   1.510       .  S
C367        C368   1.366       .  A
C367        H370   1.081       .  S
C368        C369   1.380       .  A
C368        H371   1.082       .  S
C369       C1144   1.512       .  S
N372        C376   1.370       .  A
N372        C373   1.379       .  A
N372       C1157   1.458       .  S
C373        C374   1.381       .  A
C373       C1134   1.501       .  S
C374        C375   1.360       .  A
C374        H377   1.083       .  S
C375        C376   1.381       .  A
C375        H378   1.084       .  S
C376       C1124   1.494       .  S
N379        C383   1.375       .  A
N379        C380   1.378       .  A
N379       C1114   1.465       .  S
C380        C381   1.381       .  A
C380       C1177   1.495       .  S
C381        C382   1.360       .  A
C381        H384   1.081       .  S
C382        C383   1.380       .  A
C382        H385   1.082       .  S
C383       C1127   1.496       .  S
N386        C390   1.377       .  A
N386        C387   1.385       .  A
N386       C1117   1.461       .  S
C387        C388   1.381       .  A
C387       C1184   1.514       .  S
C388        C389   1.364       .  A
C388        H391   1.082       .  S
C389        C390   1.381       .  A
C389        H392   1.082       .  S
C390       C1147   1.509       .  S
O393       Ni401   1.916       .  S
O393        C403   1.280       .  A
O394       Ni401   1.928       .  S
O394        C404   1.281       .  A
O395       Ni401   1.933       .  S
O395        C405   1.284       .  A
O396       Ni401   1.923       .  S
O396        C406   1.282       .  A
O397       Ni402   1.921       .  S
O397        C406   1.280       .  A
O398       Ni402   1.941       .  S
O398        C405   1.286       .  A
O399       Ni402   1.930       .  S
O399        C404   1.284       .  A
O400       Ni402   1.911       .  S
O400        C403   1.280       .  A
Ni401      Ni402   2.380       .  S
C403       C1104   1.478       .  S
C404       C1084   1.522       .  S
C405       C1167   1.508       .  S
C406       C1094   1.477       .  S
O407       Ni415   1.913       .  S
O407        C417   1.280       .  A
O408       Ni415   1.926       .  S
O408        C418   1.283       .  A
O409       Ni415   1.925       .  S
O409        C419   1.283       .  A
O410       Ni415   1.911       .  S
O410        C420   1.280       .  A
O411       Ni416   1.905       .  S
O411        C420   1.279       .  A
O412       Ni416   1.918       .  S
O412        C419   1.281       .  A
O413       Ni416   1.933       .  S
O413        C418   1.285       .  A
O414       Ni416   1.909       .  S
O414        C417   1.279       .  A
Ni415      Ni416   2.384       .  S
C417       C1064   1.471       .  S
C418       C1277   1.506       .  S
C419       C1054   1.506       .  S
C420       C1074   1.464       .  S
O421       Ni429   1.902       .  S
O421        C431   1.277       .  A
O422       Ni429   1.918       .  S
O422        C432   1.280       .  A
O423       Ni429   1.921       .  S
O423        C433   1.282       .  A
O424       Ni429   1.923       .  S
O424        C434   1.281       .  A
O425       Ni430   1.912       .  S
O425        C434   1.280       .  A
O426       Ni430   1.930       .  S
O426        C433   1.283       .  A
O427       Ni430   1.924       .  S
O427        C432   1.282       .  A
O428       Ni430   1.915       .  S
O428        C431   1.281       .  A
Ni429      Ni430   2.380       .  S
C431       C1077   1.464       .  S
C432       C1044   1.511       .  S
C433       C1307   1.509       .  S
C434       C1097   1.474       .  S
O435       Ni443   1.917       .  S
O435        C445   1.282       .  A
O436       Ni443   1.937       .  S
O436        C446   1.285       .  A
O437       Ni443   1.914       .  S
O437        C447   1.280       .  A
O438       Ni443   1.899       .  S
O438        C448   1.276       .  A
O439       Ni444   1.939       .  S
O439        C448   1.286       .  A
O440       Ni444   1.934       .  S
O440        C447   1.284       .  A
O441       Ni444   1.907       .  S
O441        C446   1.276       .  A
O442       Ni444   1.902       .  S
O442        C445   1.277       .  A
Ni443      Ni444   2.379       .  S
C445       C1067   1.474       .  S
C446       C1137   1.512       .  S
C447       C1034   1.512       .  S
C448       C1107   1.477       .  S
O449       Ni457   1.925       .  S
O449        C459   1.282       .  A
O450       Ni457   1.933       .  S
O450        C460   1.285       .  A
O451       Ni457   1.926       .  S
O451        C461   1.283       .  A
O452       Ni457   1.904       .  S
O452        C462   1.277       .  A
O453       Ni458   1.928       .  S
O453        C462   1.283       .  A
O454       Ni458   1.929       .  S
O454        C461   1.282       .  A
O455       Ni458   1.918       .  S
O455        C460   1.279       .  A
O456       Ni458   1.898       .  S
O456        C459   1.276       .  A
Ni457      Ni458   2.378       .  S
C459       C1024   1.496       .  S
C460       C1797   1.521       .  S
C461       C1004   1.490       .  S
C462       C1014   1.472       .  S
O463       Ni471   1.919       .  S
O463        C473   1.282       .  A
O464       Ni471   1.926       .  S
O464        C474   1.283       .  A
O465       Ni471   1.931       .  S
O465        C475   1.283       .  A
O466       Ni471   1.911       .  S
O466        C476   1.280       .  A
O467       Ni472   1.916       .  S
O467        C476   1.281       .  A
O468       Ni472   1.919       .  S
O468        C475   1.282       .  A
O469       Ni472   1.917       .  S
O469        C474   1.281       .  A
O470       Ni472   1.918       .  S
O470        C473   1.280       .  A
Ni471      Ni472   2.386       .  S
C473        C984   1.481       .  S
C474        C974   1.499       .  S
C475       C1787   1.486       .  S
C476        C994   1.474       .  S
O477       Ni485   1.915       .  S
O477        C487   1.280       .  A
O478       Ni485   1.933       .  S
O478        C488   1.284       .  A
O479       Ni485   1.922       .  S
O479        C489   1.283       .  A
O480       Ni485   1.914       .  S
O480        C490   1.280       .  A
O481       Ni486   1.911       .  S
O481        C490   1.280       .  A
O482       Ni486   1.925       .  S
O482        C489   1.282       .  A
O483       Ni486   1.923       .  S
O483        C488   1.282       .  A
O484       Ni486   1.915       .  S
O484        C487   1.280       .  A
Ni485      Ni486   2.383       .  S
C487        C997   1.474       .  S
C488       C1817   1.505       .  S
C489        C964   1.506       .  S
C490       C1017   1.472       .  S
O491       Ni499   1.916       .  S
O491        C501   1.279       .  A
O492       Ni499   1.933       .  S
O492        C502   1.284       .  A
O493       Ni499   1.944       .  S
O493        C503   1.287       .  A
O494       Ni499   1.928       .  S
O494        C504   1.283       .  A
O495       Ni500   1.891       .  S
O495        C504   1.273       .  A
O496       Ni500   1.910       .  S
O496        C503   1.279       .  A
O497       Ni500   1.928       .  S
O497        C502   1.283       .  A
O498       Ni500   1.923       .  S
O498        C501   1.283       .  A
Ni499      Ni500   2.379       .  S
C501        C987   1.485       .  S
C502        C954   1.501       .  S
C503       C1757   1.495       .  S
C504       C1027   1.501       .  S
N505        C509   1.372       .  A
N505        C506   1.377       .  A
N505        C934   1.448       .  S
C506        C507   1.390       .  A
C506        C944   1.521       .  S
C507        C508   1.366       .  A
C507        H510   1.083       .  S
C508        C509   1.374       .  A
C508        H511   1.082       .  S
C509        C924   1.501       .  S
N512        C516   1.376       .  A
N512        C513   1.379       .  A
N512        C937   1.458       .  S
C513        C514   1.380       .  A
C513        C914   1.508       .  S
C514        C515   1.364       .  A
C514        H517   1.083       .  S
C515        C516   1.383       .  A
C515        H518   1.082       .  S
C516        C904   1.509       .  S
N519        C523   1.378       .  A
N519        C520   1.385       .  A
N519        C894   1.475       .  S
C520        C521   1.383       .  A
C520       C1037   1.513       .  S
C521        C522   1.358       .  A
C521        H524   1.082       .  S
C522        C523   1.378       .  A
C522        H525   1.084       .  S
C523        C907   1.500       .  S
N526        C530   1.380       .  A
N526        C527   1.382       .  A
N526        C897   1.468       .  S
C527        C528   1.381       .  A
C527       C1057   1.502       .  S
C528        C529   1.357       .  A
C528        H531   1.083       .  S
C529        C530   1.379       .  A
C529        H532   1.083       .  S
C530        C927   1.500       .  S
N533        C537   1.381       .  A
N533        C534   1.387       .  A
N533        C884   1.473       .  S
C534        C535   1.381       .  A
C534       C1087   1.510       .  S
C535        C536   1.355       .  A
C535        H538   1.084       .  S
C536        C537   1.378       .  A
C536        H539   1.084       .  S
C537        C874   1.503       .  S
N540        C544   1.380       .  A
N540        C541   1.377       .  A
N540        C887   1.465       .  S
C541        C542   1.380       .  A
C541       C1047   1.493       .  S
C542        C543   1.361       .  A
C542        H545   1.080       .  S
C543        C544   1.382       .  A
C543        H546   1.081       .  S
C544        C864   1.504       .  S
N547        C551   1.383       .  A
N547        C548   1.384       .  A
N547        C844   1.473       .  S
C548        C549   1.381       .  A
C548        C857   1.507       .  S
C549        C550   1.355       .  A
C549        H552   1.083       .  S
C550        C551   1.379       .  A
C550        H553   1.083       .  S
C551        C877   1.504   1_545  S
N554        C558   1.378       .  A
N554        C555   1.379       .  A
N554        C847   1.462       .  S
C555        C556   1.383       .  A
C555        C837   1.505       .  S
C556        C557   1.362       .  A
C556        H559   1.083       .  S
C557        C558   1.380       .  A
C557        H560   1.081       .  S
C558        C867   1.506   1_545  S
N561        C565   1.372       .  A
N561        C562   1.379       .  A
N561        C824   1.460       .  S
C562        C563   1.382       .  A
C562        C957   1.504       .  S
C563        C564   1.366       .  A
C563        H566   1.082       .  S
C564        C565   1.379       .  A
C564        H567   1.082       .  S
C565        C814   1.497       .  S
N568        C572   1.367       .  A
N568        C569   1.373       .  A
N568        C827   1.446       .  S
C569        C570   1.386       .  A
C569       C1007   1.516       .  S
C570        C571   1.372       .  A
C570        H573   1.083       .  S
C571        C572   1.379       .  A
C571        H574   1.084       .  S
C572        C804   1.501       .  S
N575        C579   1.371       .  A
N575        C576   1.377       .  A
N575        C784   1.455       .  S
C576        C577   1.379       .  A
C576        C797   1.502       .  S
C577        C578   1.367       .  A
C577        H580   1.083       .  S
C578        C579   1.384       .  A
C578        H581   1.081       .  S
C579        C817   1.504       .  S
N582        C586   1.374       .  A
N582        C583   1.379       .  A
N582        C787   1.458       .  S
C583        C584   1.385       .  A
C583        C774   1.510       .  S
C584        C585   1.364       .  A
C584        H587   1.085       .  S
C585        C586   1.378       .  A
C585        H588   1.083       .  S
C586        C807   1.503       .  S
O589       Ni597   1.910       .  S
O589        C599   1.279       .  A
O590       Ni597   1.935       .  S
O590        C600   1.283       .  A
O591       Ni597   1.929       .  S
O591        C601   1.285       .  A
O592       Ni597   1.917       .  S
O592        C602   1.282       .  A
O593       Ni598   1.906       .  S
O593        C602   1.278       .  A
O594       Ni598   1.918       .  S
O594        C601   1.281       .  A
O595       Ni598   1.931       .  S
O595        C600   1.284       .  A
O596       Ni598   1.917       .  S
O596        C599   1.281       .  A
Ni597      Ni598   2.385       .  S
C599        C754   1.474       .  S
C600        C777   1.492       .  S
C601        C854   1.503       .  S
C602        C764   1.477       .  S
O603       Ni611   1.923       .  S
O603        C613   1.283       .  A
O604       Ni611   1.928       .  S
O604        C614   1.284       .  A
O605       Ni611   1.903       .  S
O605        C615   1.278       .  A
O606       Ni611   1.891       .  S
O606        C616   1.274       .  A
O607       Ni612   1.927       .  S
O607        C616   1.285       .  A
O608       Ni612   1.949       .  S
O608        C615   1.288       .  A
O609       Ni612   1.929       .  S
O609        C614   1.282       .  A
O610       Ni612   1.899       .  S
O610        C613   1.276       .  A
Ni611      Ni612   2.385       .  S
C613        C767   1.473       .  S
C614        C947   1.493       .  S
C615        C794   1.506       .  S
C616        C744   1.470       .  S
O617       Ni625   1.910       .  S
O617        C627   1.279       .  A
O618       Ni625   1.924       .  S
O618        C628   1.282       .  A
O619       Ni625   1.911       .  S
O619        C629   1.280       .  A
O620       Ni625   1.902       .  S
O620        C630   1.278       .  A
O621       Ni626   1.912       .  S
O621        C630   1.281       .  A
O622       Ni626   1.928       .  S
O622        C629   1.282       .  A
O623       Ni626   1.931       .  S
O623        C628   1.284       .  A
O624       Ni626   1.923       .  S
O624        C627   1.282       .  A
Ni625      Ni626   2.384       .  S
C627        C734   1.473       .  S
C628        C917   1.496       .  S
C629        C724   1.506       .  S
C630        C747   1.470       .  S
O631       Ni639   1.916       .  S
O631        C641   1.280       .  A
O632       Ni639   1.927       .  S
O632        C642   1.283       .  A
O633       Ni639   1.939       .  S
O633        C643   1.286       .  A
O634       Ni639   1.917       .  S
O634        C644   1.281       .  A
O635       Ni640   1.915       .  S
O635        C644   1.280       .  A
O636       Ni640   1.927       .  S
O636        C643   1.283       .  A
O637       Ni640   1.933       .  S
O637        C642   1.284       .  A
O638       Ni640   1.918       .  S
O638        C641   1.281       .  A
Ni639      Ni640   2.382       .  S
C641        C737   1.477       .  S
C642        C834   1.515       .  S
C643        C714   1.511       .  S
C644        C757   1.477       .  S
N645        C649   1.383       .  A
N645        C646   1.380       .  A
N645        C704   1.474       .  S
C646        C647   1.380       .  A
C646        C977   1.503       .  S
C647        C648   1.359       .  A
C647        H650   1.083       .  S
C648        C649   1.381       .  A
C648        H651   1.082       .  S
C649        C694   1.506       .  S
N652        C656   1.374       .  A
N652        C653   1.377       .  A
N652        C707   1.460       .  S
C653        C654   1.384       .  A
C653        C967   1.502       .  S
C654        C655   1.363       .  A
C654        H657   1.079       .  S
C655        C656   1.379       .  A
C655        H658   1.074       .  S
C656        C684   1.500       .  S
N659        C663   1.382       .  A
N659        C660   1.386       .  A
N659        C677   1.472       .  S
C660        C661   1.383       .  A
C660        C717   1.513       .  S
C661        C662   1.359       .  A
C661        H664   1.083       .  S
C662        C663   1.378       .  A
C662        H665   1.083       .  S
C663        C697   1.505       .  S
N666        C670   1.379       .  A
N666        C667   1.374       .  A
N666        C674   1.462       .  S
C667        C668   1.380       .  A
C667        C727   1.491       .  S
C668        C669   1.358       .  A
C668        H671   1.083       .  S
C669        C670   1.382       .  A
C669        H672   1.083       .  S
C670        C687   1.505       .  S
C673        C674   1.412       .  A
C673        C678   1.419       .  A
C673       Br680   1.926       .  S
C674        C675   1.411       .  A
C675        C676   1.417       .  A
C675       Br682   1.925       .  S
C676        C677   1.423       .  A
C676       Br681   1.918       .  S
C677        C678   1.421       .  A
C678       Br679   1.927       .  S
C683        C684   1.411       .  A
C683        C688   1.412       .  A
C683       Br690   1.919       .  S
C684        C685   1.416       .  A
C685        C686   1.415       .  A
C685       Br692   1.937       .  S
C686        C687   1.413       .  A
C686       Br691   1.916       .  S
C687        C688   1.421       .  A
C688       Br689   1.939       .  S
C693        C694   1.418       .  A
C693        C698   1.411       .  A
C693       Br700   1.936       .  S
C694        C695   1.403       .  A
C695        C696   1.411       .  A
C695       Br702   1.889       .  S
C696        C697   1.405       .  A
C696       Br701   1.912       .  S
C697        C698   1.420       .  A
C698       Br699   1.936       .  S
C703        C704   1.427       .  A
C703        C708   1.414       .  A
C703       Br710   1.917       .  S
C704        C705   1.423       .  A
C705        C706   1.421       .  A
C705       Br712   1.929       .  S
C706        C707   1.415       .  A
C706       Br711   1.925       .  S
C707        C708   1.402       .  A
C708       Br709   1.926       .  S
C713        C714   1.413       .  A
C713        C718   1.415       .  A
C713       Br720   1.935       .  S
C714        C715   1.423       .  A
C715        C716   1.421       .  A
C715       Br722   1.932       .  S
C716        C717   1.412       .  A
C716       Br721   1.925       .  S
C717        C718   1.425       .  A
C718       Br719   1.939       .  S
C723        C724   1.420       .  A
C723        C728   1.408       .  A
C723       Br730   1.938       .  S
C724        C725   1.426       .  A
C725        C726   1.416       .  A
C725       Br732   1.935       .  S
C726        C727   1.407       .  A
C726       Br731   1.925       .  S
C727        C728   1.415       .  A
C728       Br729   1.941       .  S
C733        C734   1.410       .  A
C733        C738   1.410       .  A
C733       Br740   1.931       .  S
C734        C735   1.409       .  A
C735        C736   1.405       .  A
C735       Br742   1.932       .  S
C736        C737   1.411       .  A
C736       Br741   1.932       .  S
C737        C738   1.412       .  A
C738       Br739   1.931       .  S
C743        C744   1.408       .  A
C743        C748   1.405       .  A
C743       Br750   1.932       .  S
C744        C745   1.414       .  A
C745        C746   1.403       .  A
C745       Br752   1.934       .  S
C746        C747   1.410       .  A
C746       Br751   1.935       .  S
C747        C748   1.413       .  A
C748       Br749   1.934       .  S
C753        C754   1.410       .  A
C753        C758   1.407       .  A
C753       Br760   1.932       .  S
C754        C755   1.410       .  A
C755        C756   1.406       .  A
C755       Br762   1.934       .  S
C756        C757   1.412       .  A
C756       Br761   1.933       .  S
C757        C758   1.411       .  A
C758       Br759   1.932       .  S
C763        C764   1.414       .  A
C763        C768   1.403       .  A
C763       Br770   1.938       .  S
C764        C765   1.414       .  A
C765        C766   1.407       .  A
C765       Br772   1.933       .  S
C766        C767   1.409       .  A
C766       Br771   1.932       .  S
C767        C768   1.411       .  A
C768       Br769   1.935       .  S
C773        C774   1.413       .  A
C773        C778   1.411       .  A
C773       Br780   1.922       .  S
C774        C775   1.429       .  A
C775        C776   1.414       .  A
C775       Br782   1.934       .  S
C776        C777   1.401       .  A
C776       Br781   1.927       .  S
C777        C778   1.409       .  A
C778       Br779   1.918       .  S
C783        C784   1.405       .  A
C783        C788   1.407       .  A
C783       Br790   1.918       .  S
C784        C785   1.420       .  A
C785        C786   1.419       .  A
C785       Br792   1.920       .  S
C786        C787   1.412       .  A
C786       Br791   1.928       .  S
C787        C788   1.415       .  A
C788       Br789   1.919       .  S
C793        C794   1.413       .  A
C793        C798   1.422       .  A
C793       Br800   1.930       .  S
C794        C795   1.419       .  A
C795        C796   1.405       .  A
C795       Br802   1.937       .  S
C796        C797   1.412       .  A
C796       Br801   1.930       .  S
C797        C798   1.421       .  A
C798       Br799   1.922       .  S
C803        C804   1.410   1_455  A
C803        C808   1.410       .  A
C803       Br810   1.927   1_455  S
C804        C805   1.414   1_655  A
C805        C806   1.417       .  A
C805       Br812   1.920   1_455  S
C806        C807   1.414       .  A
C806       Br811   1.926       .  S
C807        C808   1.419       .  A
C808       Br809   1.936       .  S
C813        C814   1.412   1_455  A
C813        C818   1.416       .  A
C813       Br820   1.926   1_455  S
C814        C815   1.415   1_655  A
C815        C816   1.410       .  A
C815       Br822   1.936   1_455  S
C816        C817   1.417       .  A
C816       Br821   1.935       .  S
C817        C818   1.414       .  A
C818       Br819   1.916       .  S
C823        C824   1.415       .  A
C823        C828   1.410       .  A
C823       Br830   1.920       .  S
C824        C825   1.423       .  A
C825        C826   1.413       .  A
C825       Br832   1.918       .  S
C826        C827   1.399       .  A
C826       Br831   1.925       .  S
C827        C828   1.415       .  A
C828       Br829   1.938       .  S
C833        C834   1.427       .  A
C833        C838   1.421       .  A
C833       Br840   1.934       .  S
C834        C835   1.418       .  A
C835        C836   1.415       .  A
C835       Br842   1.935       .  S
C836        C837   1.419       .  A
C836       Br841   1.938       .  S
C837        C838   1.408       .  A
C838       Br839   1.924       .  S
C843        C844   1.421       .  A
C843        C848   1.420       .  A
C843       Br850   1.930       .  S
C844        C845   1.424       .  A
C845        C846   1.417       .  A
C845       Br852   1.917       .  S
C846        C847   1.407       .  A
C846       Br851   1.926       .  S
C847        C848   1.416       .  A
C848       Br849   1.925       .  S
C853        C854   1.424       .  A
C853        C858   1.416       .  A
C853       Br860   1.936       .  S
C854        C855   1.411       .  A
C855        C856   1.413       .  A
C855       Br862   1.934       .  S
C856        C857   1.426       .  A
C856       Br861   1.940       .  S
C857        C858   1.411       .  A
C858       Br859   1.925       .  S
C863        C864   1.412       .  A
C863        C868   1.416       .  A
C863       Br870   1.919       .  S
C864        C865   1.419       .  A
C865        C866   1.415       .  A
C865       Br872   1.937       .  S
C866        C867   1.412       .  A
C866       Br871   1.920   1_565  S
C867        C868   1.419       .  A
C868       Br869   1.935       .  S
C873        C874   1.407       .  A
C873        C878   1.415       .  A
C873       Br880   1.902       .  S
C874        C875   1.415       .  A
C875        C876   1.405       .  A
C875       Br882   1.937       .  S
C876        C877   1.420       .  A
C876       Br881   1.936   1_565  S
C877        C878   1.407       .  A
C878       Br879   1.908       .  S
C883        C884   1.421       .  A
C883        C888   1.421       .  A
C883       Br890   1.927       .  S
C884        C885   1.421       .  A
C885        C886   1.415       .  A
C885       Br892   1.915       .  S
C886        C887   1.411       .  A
C886       Br891   1.920       .  S
C887        C888   1.414       .  A
C888       Br889   1.922       .  S
C893        C894   1.425       .  A
C893        C898   1.421       .  A
C893       Br900   1.918       .  S
C894        C895   1.421       .  A
C895        C896   1.421       .  A
C895       Br902   1.928       .  S
C896        C897   1.417       .  A
C896       Br901   1.921       .  S
C897        C898   1.411       .  A
C898       Br899   1.925       .  S
C903        C904   1.414       .  A
C903        C908   1.414       .  A
C903       Br910   1.913       .  S
C904        C905   1.420       .  A
C905        C906   1.406       .  A
C905       Br912   1.935       .  S
C906        C907   1.414       .  A
C906       Br911   1.935       .  S
C907        C908   1.405       .  A
C908       Br909   1.905       .  S
C913        C914   1.412       .  A
C913        C918   1.415       .  A
C913       Br920   1.925       .  S
C914        C915   1.426       .  A
C915        C916   1.414       .  A
C915       Br922   1.938       .  S
C916        C917   1.408       .  A
C916       Br921   1.933       .  S
C917        C918   1.417       .  A
C918       Br919   1.932       .  S
C923        C924   1.413       .  A
C923        C928   1.419       .  A
C923       Br930   1.930       .  S
C924        C925   1.413       .  A
C925        C926   1.412       .  A
C925       Br932   1.924       .  S
C926        C927   1.419       .  A
C926       Br931   1.939       .  S
C927        C928   1.414       .  A
C928       Br929   1.925       .  S
C933        C934   1.411       .  A
C933        C938   1.402       .  A
C933       Br940   1.934       .  S
C934        C935   1.406       .  A
C935        C936   1.418       .  A
C935       Br942   1.920       .  S
C936        C937   1.422       .  A
C936       Br941   1.927       .  S
C937        C938   1.416       .  A
C938       Br939   1.921       .  S
C943        C944   1.423       .  A
C943        C948   1.418       .  A
C943       Br950   1.920       .  S
C944        C945   1.427       .  A
C945        C946   1.412       .  A
C945       Br952   1.933       .  S
C946        C947   1.401       .  A
C946       Br951   1.927       .  S
C947        C948   1.413       .  A
C948       Br949   1.931       .  S
C953        C954   1.420       .  A
C953        C958   1.414       .  A
C953       Br960   1.928       .  S
C954        C955   1.409       .  A
C955        C956   1.416       .  A
C955       Br962   1.930       .  S
C956        C957   1.424       .  A
C956       Br961   1.935       .  S
C957        C958   1.409       .  A
C958       Br959   1.923       .  S
C963        C964   1.426       .  A
C963        C968   1.418       .  A
C963       Br970   1.935       .  S
C964        C965   1.415       .  A
C965        C966   1.412       .  A
C965       Br972   1.935       .  S
C966        C967   1.420       .  A
C966       Br971   1.936       .  S
C967        C968   1.408       .  A
C968       Br969   1.922       .  S
C973        C974   1.420       .  A
C973        C978   1.409       .  A
C973       Br980   1.936       .  S
C974        C975   1.414       .  A
C975        C976   1.415       .  A
C975       Br982   1.934       .  S
C976        C977   1.425       .  A
C976       Br981   1.939       .  S
C977        C978   1.409       .  A
C978       Br979   1.924       .  S
C983        C984   1.413       .  A
C983        C988   1.411       .  A
C983       Br990   1.932       .  S
C984        C985   1.410       .  A
C985        C986   1.407       .  A
C985       Br992   1.933       .  S
C986        C987   1.412       .  A
C986       Br991   1.930       .  S
C987        C988   1.415       .  A
C988       Br989   1.933       .  S
C993        C994   1.411       .  A
C993        C998   1.406       .  A
C993      Br1000   1.932       .  S
C994        C995   1.411       .  A
C995        C996   1.407       .  A
C995      Br1002   1.934       .  S
C996        C997   1.412       .  A
C996      Br1001   1.932       .  S
C997        C998   1.410       .  A
C998       Br999   1.932       .  S
C1003      C1004   1.401       .  A
C1003      C1008   1.415       .  A
C1003     Br1010   1.930       .  S
C1004      C1005   1.410       .  A
C1005      C1006   1.410       .  A
C1005     Br1012   1.925       .  S
C1006      C1007   1.417       .  A
C1006     Br1011   1.920       .  S
C1007      C1008   1.431       .  A
C1008     Br1009   1.930       .  S
C1013      C1014   1.409       .  A
C1013      C1018   1.405       .  A
C1013     Br1020   1.931       .  S
C1014      C1015   1.409       .  A
C1015      C1016   1.406       .  A
C1015     Br1022   1.922       .  S
C1016      C1017   1.409       .  A
C1016     Br1021   1.933       .  S
C1017      C1018   1.411       .  A
C1018     Br1019   1.932       .  S
C1023      C1024   1.420       .  A
C1023      C1028   1.407       .  A
C1023     Br1030   1.947       .  S
C1024      C1025   1.418       .  A
C1025      C1026   1.412       .  A
C1025     Br1032   1.939       .  S
C1026      C1027   1.420       .  A
C1026     Br1031   1.939       .  S
C1027      C1028   1.427       .  A
C1028     Br1029   1.948       .  S
C1033      C1034   1.418       .  A
C1033      C1038   1.415       .  A
C1033     Br1040   1.940       .  S
C1034      C1035   1.423       .  A
C1035      C1036   1.419       .  A
C1035     Br1042   1.935       .  S
C1036      C1037   1.414       .  A
C1036     Br1041   1.921       .  S
C1037      C1038   1.425       .  A
C1038     Br1039   1.940       .  S
C1043      C1044   1.424       .  A
C1043      C1048   1.418       .  A
C1043     Br1050   1.935       .  S
C1044      C1045   1.426       .  A
C1045      C1046   1.409       .  A
C1045     Br1052   1.940       .  S
C1046      C1047   1.414       .  A
C1046     Br1051   1.943       .  S
C1047      C1048   1.410       .  A
C1048     Br1049   1.925       .  S
C1053      C1054   1.417       .  A
C1053      C1058   1.414       .  A
C1053     Br1060   1.936       .  S
C1054      C1055   1.424       .  A
C1055      C1056   1.415       .  A
C1055     Br1062   1.936       .  S
C1056      C1057   1.409       .  A
C1056     Br1061   1.920       .  S
C1057      C1058   1.422       .  A
C1058     Br1059   1.939       .  S
C1063      C1064   1.410       .  A
C1063      C1068   1.405       .  A
C1063     Br1070   1.934       .  S
C1064      C1065   1.410       .  A
C1065      C1066   1.405       .  A
C1065     Br1072   1.933       .  S
C1066      C1067   1.411       .  A
C1066     Br1071   1.934       .  S
C1067      C1068   1.414       .  A
C1068     Br1069   1.935       .  S
C1073      C1074   1.407       .  A
C1073      C1078   1.403       .  A
C1073     Br1080   1.933       .  S
C1074      C1075   1.410       .  A
C1075      C1076   1.403       .  A
C1075     Br1082   1.932       .  S
C1076      C1077   1.407       .  A
C1076     Br1081   1.931       .  S
C1077      C1078   1.411       .  A
C1078     Br1079   1.931       .  S
C1083      C1084   1.421       .  A
C1083      C1088   1.417       .  A
C1083     Br1090   1.938       .  S
C1084      C1085   1.429       .  A
C1085      C1086   1.421       .  A
C1085     Br1092   1.937       .  S
C1086      C1087   1.409       .  A
C1086     Br1091   1.927       .  S
C1087      C1088   1.425       .  A
C1088     Br1089   1.943       .  S
C1093      C1094   1.407       .  A
C1093      C1098   1.403       .  A
C1093     Br1100   1.918       .  S
C1094      C1095   1.411       .  A
C1095      C1096   1.410       .  A
C1095     Br1102   1.928       .  S
C1096      C1097   1.410       .  A
C1096     Br1101   1.928       .  S
C1097      C1098   1.408       .  A
C1098     Br1099   1.930       .  S
C1103      C1104   1.412       .  A
C1103      C1108   1.405       .  A
C1103     Br1110   1.937       .  S
C1104      C1105   1.415       .  A
C1105      C1106   1.408       .  A
C1105     Br1112   1.933       .  S
C1106      C1107   1.410       .  A
C1106     Br1111   1.932       .  S
C1107      C1108   1.407       .  A
C1108     Br1109   1.917       .  S
C1113      C1114   1.414       .  A
C1113      C1118   1.411       .  A
C1113     Br1120   1.919       .  S
C1114      C1115   1.417       .  A
C1115      C1116   1.420       .  A
C1115     Br1122   1.924       .  S
C1116      C1117   1.417       .  A
C1116     Br1121   1.920       .  S
C1117      C1118   1.410       .  A
C1118     Br1119   1.916       .  S
C1123      C1124   1.412       .  A
C1123      C1128   1.415       .  A
C1123     Br1130   1.920       .  S
C1124      C1125   1.414       .  A
C1125      C1126   1.407       .  A
C1125     Br1132   1.940       .  S
C1126      C1127   1.418       .  A
C1126     Br1131   1.938       .  S
C1127      C1128   1.413       .  A
C1128     Br1129   1.923       .  S
C1133      C1134   1.418       .  A
C1133      C1138   1.413       .  A
C1133     Br1140   1.941       .  S
C1134      C1135   1.415       .  A
C1135      C1136   1.417       .  A
C1135     Br1142   1.921       .  S
C1136      C1137   1.419       .  A
C1136     Br1141   1.936       .  S
C1137      C1138   1.427       .  A
C1138     Br1139   1.945       .  S
C1143      C1144   1.416       .  A
C1143      C1148   1.423       .  A
C1143     Br1150   1.926       .  S
C1144      C1145   1.421       .  A
C1145      C1146   1.415       .  A
C1145     Br1152   1.935       .  S
C1146      C1147   1.417       .  A
C1146     Br1151   1.938       .  S
C1147      C1148   1.415       .  A
C1148     Br1149   1.921       .  S
C1153      C1154   1.415       .  A
C1153      C1158   1.419       .  A
C1153     Br1160   1.922       .  S
C1154      C1155   1.413       .  A
C1155      C1156   1.410       .  A
C1155     Br1162   1.916       .  S
C1156      C1157   1.410       .  A
C1156     Br1161   1.919       .  S
C1157      C1158   1.416       .  A
C1158     Br1159   1.920       .  S
C1163      C1164   1.424       .  A
C1163      C1168   1.417       .  A
C1163     Br1170   1.936       .  S
C1164      C1165   1.410       .  A
C1165      C1166   1.420       .  A
C1165     Br1172   1.925       .  S
C1166      C1167   1.421       .  A
C1166     Br1171   1.930       .  S
C1167      C1168   1.411       .  A
C1168     Br1169   1.931       .  S
C1173      C1174   1.420       .  A
C1173      C1178   1.413       .  A
C1173     Br1180   1.931       .  S
C1174      C1175   1.408       .  A
C1175      C1176   1.412       .  A
C1175     Br1182   1.932       .  S
C1176      C1177   1.423       .  A
C1176     Br1181   1.937       .  S
C1177      C1178   1.407       .  A
C1178     Br1179   1.926       .  S
C1183      C1184   1.422       .  A
C1183      C1188   1.420       .  A
C1183     Br1190   1.934       .  S
C1184      C1185   1.418       .  A
C1185      C1186   1.421       .  A
C1185     Br1192   1.921       .  S
C1186      C1187   1.418       .  A
C1186     Br1191   1.935       .  S
C1187      C1188   1.424       .  A
C1188     Br1189   1.941       .  S
C1193      C1194   1.406       .  A
C1193      C1198   1.401       .  A
C1193     Br1200   1.932       .  S
C1194      C1195   1.406       .  A
C1195      C1196   1.404       .  A
C1195     Br1202   1.922       .  S
C1196      C1197   1.412       .  A
C1196     Br1201   1.934       .  S
C1197      C1198   1.413       .  A
C1198     Br1199   1.936       .  S
C1203      C1204   1.413       .  A
C1203      C1208   1.408       .  A
C1203     Br1210   1.932       .  S
C1204      C1205   1.416       .  A
C1205      C1206   1.403       .  A
C1205     Br1212   1.935       .  S
C1206      C1207   1.405       .  A
C1206     Br1211   1.930       .  S
C1207      C1208   1.409       .  A
C1208     Br1209   1.931       .  S
C1213      C1214   1.405       .  A
C1213      C1218   1.404       .  A
C1213     Br1220   1.926       .  S
C1214      C1215   1.408       .  A
C1215      C1216   1.407       .  A
C1215     Br1222   1.931       .  S
C1216      C1217   1.414       .  A
C1216     Br1221   1.932       .  S
C1217      C1218   1.414       .  A
C1218     Br1219   1.934       .  S
C1223      C1224   1.416       .  A
C1223      C1228   1.407       .  A
C1223     Br1230   1.935       .  S
C1224      C1225   1.415       .  A
C1225      C1226   1.406       .  A
C1225     Br1232   1.934       .  S
C1226      C1227   1.408       .  A
C1226     Br1231   1.934       .  S
C1227      C1228   1.409       .  A
C1228     Br1229   1.933       .  S
C1233      C1234   1.417       .  A
C1233      C1238   1.414       .  A
C1233     Br1240   1.933       .  S
C1234      C1235   1.409       .  A
C1235      C1236   1.414       .  A
C1235     Br1242   1.933       .  S
C1236      C1237   1.424       .  A
C1236     Br1241   1.936       .  S
C1237      C1238   1.411       .  A
C1238     Br1239   1.924       .  S
C1243      C1244   1.402       .  A
C1243      C1248   1.415       .  A
C1243     Br1250   1.923       .  S
C1244      C1245   1.410       .  A
C1245      C1246   1.404       .  A
C1245     Br1252   1.933       .  S
C1246      C1247   1.415       .  A
C1246     Br1251   1.919       .  S
C1247      C1248   1.423       .  A
C1248     Br1249   1.920       .  S
C1253      C1254   1.403       .  A
C1253      C1258   1.416       .  A
C1253     Br1260   1.927       .  S
C1254      C1255   1.413       .  A
C1255      C1256   1.416       .  A
C1255     Br1262   1.931       .  S
C1256      C1257   1.421       .  A
C1256     Br1261   1.918       .  S
C1257      C1258   1.427       .  A
C1258     Br1259   1.932       .  S
C1263      C1264   1.416       .  A
C1263      C1268   1.410   1_556  A
C1263     Br1270   1.933       .  S
C1264      C1265   1.405       .  A
C1265      C1266   1.410   1_556  A
C1265     Br1272   1.903       .  S
C1266      C1267   1.412       .  A
C1266     Br1271   1.919       .  S
C1267      C1268   1.418       .  A
C1268     Br1269   1.935       .  S
C1273      C1274   1.409       .  A
C1273      C1278   1.417       .  A
C1273     Br1280   1.925       .  S
C1274      C1275   1.417       .  A
C1275      C1276   1.414       .  A
C1275     Br1282   1.935       .  S
C1276      C1277   1.415       .  A
C1276     Br1281   1.932       .  S
C1277      C1278   1.422       .  A
C1278     Br1279   1.932       .  S
C1283      C1284   1.415       .  A
C1283      C1288   1.418   1_556  A
C1283     Br1290   1.922       .  S
C1284      C1285   1.419       .  A
C1285      C1286   1.413   1_556  A
C1285     Br1292   1.937       .  S
C1286      C1287   1.414       .  A
C1286     Br1291   1.923       .  S
C1287      C1288   1.413       .  A
C1288     Br1289   1.929       .  S
C1293      C1294   1.416       .  A
C1293      C1298   1.413       .  A
C1293     Br1300   1.921       .  S
C1294      C1295   1.416       .  A
C1295      C1296   1.418       .  A
C1295     Br1302   1.920       .  S
C1296      C1297   1.411       .  A
C1296     Br1301   1.921       .  S
C1297      C1298   1.414       .  A
C1298     Br1299   1.932       .  S
C1303      C1304   1.409       .  A
C1303      C1308   1.418       .  A
C1303     Br1310   1.922       .  S
C1304      C1305   1.417       .  A
C1305      C1306   1.412       .  A
C1305     Br1312   1.938       .  S
C1306      C1307   1.419       .  A
C1306     Br1311   1.936       .  S
C1307      C1308   1.425       .  A
C1308     Br1309   1.935       .  S
C1313      C1314   1.406       .  A
C1313      C1318   1.410       .  A
C1313     Br1320   1.922       .  S
C1314      C1315   1.422       .  A
C1315      C1316   1.415       .  A
C1315     Br1322   1.935       .  S
C1316      C1317   1.411       .  A
C1316     Br1321   1.930       .  S
C1317      C1318   1.421       .  A
C1318     Br1319   1.932       .  S
C1323      C1324   1.416       .  A
C1323      C1328   1.419       .  A
C1323     Br1330   1.923       .  S
C1324      C1325   1.407       .  A
C1325      C1326   1.409       .  A
C1325     Br1332   1.915       .  S
C1326      C1327   1.414       .  A
C1326     Br1331   1.917       .  S
C1327      C1328   1.415       .  A
C1328     Br1329   1.918       .  S
C1333      C1334   1.415       .  A
C1333      C1338   1.417       .  A
C1333     Br1340   1.935       .  S
C1334      C1335   1.410       .  A
C1335      C1336   1.414       .  A
C1335     Br1342   1.927       .  S
C1336      C1337   1.424       .  A
C1336     Br1341   1.939       .  S
C1337      C1338   1.428       .  A
C1338     Br1339   1.939       .  S
C1343      C1344   1.414   1_455  A
C1343      C1348   1.408       .  A
C1343     Br1350   1.933   1_455  S
C1344      C1345   1.415       .  A
C1345      C1346   1.416   1_655  A
C1345     Br1352   1.918       .  S
C1346      C1347   1.412       .  A
C1346     Br1351   1.930       .  S
C1347      C1348   1.416       .  A
C1348     Br1349   1.935       .  S
C1353      C1354   1.418       .  A
C1353      C1358   1.412   1_655  A
C1353     Br1360   1.932       .  S
C1354      C1355   1.414       .  A
C1355      C1356   1.416   1_655  A
C1355     Br1362   1.923       .  S
C1356      C1357   1.412       .  A
C1356     Br1361   1.919       .  S
C1357      C1358   1.415       .  A
C1358     Br1359   1.935       .  S
C1363      C1364   1.414       .  A
C1363      C1368   1.417       .  A
C1363     Br1370   1.922       .  S
C1364      C1365   1.410       .  A
C1365      C1366   1.409       .  A
C1365     Br1372   1.921       .  S
C1366      C1367   1.410       .  A
C1366     Br1371   1.912       .  S
C1367      C1368   1.415       .  A
C1368     Br1369   1.918       .  S
C1373      C1374   1.415       .  A
C1373      C1378   1.409       .  A
C1373     Br1380   1.918       .  S
C1374      C1375   1.417       .  A
C1375      C1376   1.419       .  A
C1375     Br1382   1.920       .  S
C1376      C1377   1.416       .  A
C1376     Br1381   1.920       .  S
C1377      C1378   1.410       .  A
C1378     Br1379   1.920       .  S
C1383      C1384   1.415       .  A
C1383      C1388   1.405       .  A
C1383     Br1390   1.937       .  S
C1384      C1385   1.414       .  A
C1385      C1386   1.416       .  A
C1385     Br1392   1.917       .  S
C1386      C1387   1.411       .  A
C1386     Br1391   1.927       .  S
C1387      C1388   1.416       .  A
C1388     Br1389   1.938       .  S
C1393      C1394   1.413       .  A
C1393      C1398   1.418       .  A
C1393     Br1400   1.920       .  S
C1394      C1395   1.417       .  A
C1395      C1396   1.415       .  A
C1395     Br1402   1.939       .  S
C1396      C1397   1.428       .  A
C1396     Br1401   1.943       .  S
C1397      C1398   1.422       .  A
C1398     Br1399   1.938       .  S
C1403      C1404   1.414       .  A
C1403      C1408   1.404       .  A
C1403     Br1410   1.938       .  S
C1404      C1405   1.412       .  A
C1405      C1406   1.415       .  A
C1405     Br1412   1.931       .  S
C1406      C1407   1.414       .  A
C1406     Br1411   1.920       .  S
C1407      C1408   1.416       .  A
C1408     Br1409   1.939       .  S
C1413      C1414   1.406       .  A
C1413      C1418   1.405       .  A
C1413     Br1420   1.922       .  S
C1414      C1415   1.416       .  A
C1415      C1416   1.421       .  A
C1415     Br1422   1.923       .  S
C1416      C1417   1.418       .  A
C1416     Br1421   1.917       .  S
C1417      C1418   1.415       .  A
C1418     Br1419   1.912       .  S
C1423      C1424   1.404       .  A
C1423      C1428   1.411       .  A
C1423     Br1430   1.928       .  S
C1424      C1425   1.423       .  A
C1425      C1426   1.414       .  A
C1425     Br1432   1.936       .  S
C1426      C1427   1.408       .  A
C1426     Br1431   1.930       .  S
C1427      C1428   1.422       .  A
C1428     Br1429   1.927       .  S
C1433      C1434   1.416       .  A
C1433      C1438   1.417       .  A
C1433     Br1440   1.934       .  S
C1434      C1435   1.420       .  A
C1435      C1436   1.411       .  A
C1435     Br1442   1.937       .  S
C1436      C1437   1.416       .  A
C1436     Br1441   1.934       .  S
C1437      C1438   1.416       .  A
C1438     Br1439   1.925       .  S
C1443      C1444   1.411       .  A
C1443      C1448   1.413       .  A
C1443     Br1450   1.931       .  S
C1444      C1445   1.421       .  A
C1445      C1446   1.412       .  A
C1445     Br1452   1.932       .  S
C1446      C1447   1.407       .  A
C1446     Br1451   1.924       .  S
C1447      C1448   1.423       .  A
C1448     Br1449   1.937       .  S
C1453      C1454   1.410       .  A
C1453      C1458   1.413       .  A
C1453     Br1460   1.931       .  S
C1454      C1455   1.420       .  A
C1455      C1456   1.415       .  A
C1455     Br1462   1.934       .  S
C1456      C1457   1.409       .  A
C1456     Br1461   1.924       .  S
C1457      C1458   1.420       .  A
C1458     Br1459   1.936       .  S
C1463      C1464   1.407       .  A
C1463      C1468   1.402       .  A
C1463     Br1470   1.929       .  S
C1464      C1465   1.404       .  A
C1465      C1466   1.397       .  A
C1465     Br1472   1.929       .  S
C1466      C1467   1.405       .  A
C1466     Br1471   1.926       .  S
C1467      C1468   1.408       .  A
C1468     Br1469   1.929       .  S
C1473      C1474   1.414       .  A
C1473      C1478   1.401       .  A
C1473     Br1480   1.937       .  S
C1474      C1475   1.419       .  A
C1475      C1476   1.412       .  A
C1475     Br1482   1.929       .  S
C1476      C1477   1.408       .  A
C1476     Br1481   1.931       .  S
C1477      C1478   1.408       .  A
C1478     Br1479   1.931       .  S
C1483      C1484   1.424       .  A
C1483      C1488   1.416       .  A
C1483     Br1490   1.938       .  S
C1484      C1485   1.430       .  A
C1485      C1486   1.412       .  A
C1485     Br1492   1.944       .  S
C1486      C1487   1.415       .  A
C1486     Br1491   1.943       .  S
C1487      C1488   1.411       .  A
C1488     Br1489   1.923       .  S
C1493      C1494   1.410       .  A
C1493      C1498   1.405       .  A
C1493     Br1500   1.933       .  S
C1494      C1495   1.406       .  A
C1495      C1496   1.406       .  A
C1495     Br1502   1.932       .  S
C1496      C1497   1.416       .  A
C1496     Br1501   1.933       .  S
C1497      C1498   1.410       .  A
C1498     Br1499   1.926       .  S
C1503      C1504   1.417       .  A
C1503      C1508   1.403       .  A
C1503     Br1510   1.937       .  S
C1504      C1505   1.414       .  A
C1505      C1506   1.406       .  A
C1505     Br1512   1.935       .  S
C1506      C1507   1.411       .  A
C1506     Br1511   1.934       .  S
C1507      C1508   1.409       .  A
C1508     Br1509   1.936       .  S
C1513      C1514   1.413       .  A
C1513      C1518   1.418       .  A
C1513     Br1520   1.922       .  S
C1514      C1515   1.425       .  A
C1515      C1516   1.412       .  A
C1515     Br1522   1.936       .  S
C1516      C1517   1.406       .  A
C1516     Br1521   1.933       .  S
C1517      C1518   1.418       .  A
C1518     Br1519   1.931       .  S
C1523      C1524   1.413       .  A
C1523      C1528   1.417       .  A
C1523     Br1530   1.923       .  S
C1524      C1525   1.410       .  A
C1525      C1526   1.410       .  A
C1525     Br1532   1.925       .  S
C1526      C1527   1.416       .  A
C1526     Br1531   1.922       .  S
C1527      C1528   1.420       .  A
C1528     Br1529   1.919       .  S
C1533      C1534   1.415       .  A
C1533      C1538   1.407       .  A
C1533     Br1540   1.937       .  S
C1534      C1535   1.406       .  A
C1535      C1536   1.409       .  A
C1535     Br1542   1.922       .  S
C1536      C1537   1.424       .  A
C1536     Br1541   1.938       .  S
C1537      C1538   1.415       .  A
C1538     Br1539   1.934       .  S
C1543      C1544   1.415       .  A
C1543      C1548   1.407       .  A
C1543     Br1550   1.934       .  S
C1544      C1545   1.405       .  A
C1545      C1546   1.415       .  A
C1545     Br1552   1.902       .  S
C1546      C1547   1.412       .  A
C1546     Br1551   1.918       .  S
C1547      C1548   1.418       .  A
C1548     Br1549   1.937       .  S
C1553      C1554   1.411       .  A
C1553      C1558   1.410       .  A
C1553     Br1560   1.921       .  S
C1554      C1555   1.418       .  A
C1555      C1556   1.410       .  A
C1555     Br1562   1.936       .  S
C1556      C1557   1.410       .  A
C1556     Br1561   1.921       .  S
C1557      C1558   1.416       .  A
C1558     Br1559   1.936       .  S
C1563      C1564   1.414       .  A
C1563      C1568   1.420       .  A
C1563     Br1570   1.925       .  S
C1564      C1565   1.414       .  A
C1565      C1566   1.413       .  A
C1565     Br1572   1.924       .  S
C1566      C1567   1.417       .  A
C1566     Br1571   1.931       .  S
C1567      C1568   1.416       .  A
C1568     Br1569   1.920       .  S
C1573      C1574   1.420       .  A
C1573      C1578   1.406       .  A
C1573     Br1580   1.937       .  S
C1574      C1575   1.415       .  A
C1575      C1576   1.410       .  A
C1575     Br1582   1.934       .  S
C1576      C1577   1.410       .  A
C1576     Br1581   1.930       .  S
C1577      C1578   1.406       .  A
C1578     Br1579   1.935       .  S
C1583      C1584   1.410       .  A
C1583      C1588   1.413       .  A
C1583     Br1590   1.932       .  S
C1584      C1585   1.421       .  A
C1585      C1586   1.417       .  A
C1585     Br1592   1.930       .  S
C1586      C1587   1.407       .  A
C1586     Br1591   1.928       .  S
C1587      C1588   1.418       .  A
C1588     Br1589   1.934       .  S
C1593      C1594   1.411       .  A
C1593      C1598   1.406       .  A
C1593     Br1600   1.933       .  S
C1594      C1595   1.411       .  A
C1595      C1596   1.402       .  A
C1595     Br1602   1.933       .  S
C1596      C1597   1.408       .  A
C1596     Br1601   1.929       .  S
C1597      C1598   1.412       .  A
C1598     Br1599   1.933       .  S
C1603      C1604   1.416       .  A
C1603      C1608   1.407       .  A
C1603     Br1610   1.937       .  S
C1604      C1605   1.408       .  A
C1605      C1606   1.416       .  A
C1605     Br1612   1.923       .  S
C1606      C1607   1.424       .  A
C1606     Br1611   1.933       .  S
C1607      C1608   1.415       .  A
C1608     Br1609   1.936       .  S
C1613      C1614   1.409       .  A
C1613      C1618   1.406       .  A
C1613     Br1620   1.929       .  S
C1614      C1615   1.407       .  A
C1615      C1616   1.400       .  A
C1615     Br1622   1.928       .  S
C1616      C1617   1.405       .  A
C1616     Br1621   1.918       .  S
C1617      C1618   1.408       .  A
C1618     Br1619   1.926       .  S
C1623      C1624   1.410       .  A
C1623      C1628   1.408       .  A
C1623     Br1630   1.932       .  S
C1624      C1625   1.408       .  A
C1625      C1626   1.402       .  A
C1625     Br1632   1.933       .  S
C1626      C1627   1.413       .  A
C1626     Br1631   1.936       .  S
C1627      C1628   1.412       .  A
C1628     Br1629   1.931       .  S
C1633      C1634   1.411       .  A
C1633      C1638   1.409       .  A
C1633     Br1640   1.932       .  S
C1634      C1635   1.419       .  A
C1635      C1636   1.413       .  A
C1635     Br1642   1.931       .  S
C1636      C1637   1.407       .  A
C1636     Br1641   1.927       .  S
C1637      C1638   1.415       .  A
C1638     Br1639   1.934       .  S
C1643      C1644   1.411       .  A
C1643      C1648   1.418       .  A
C1643     Br1650   1.922       .  S
C1644      C1645   1.414       .  A
C1645      C1646   1.410       .  A
C1645     Br1652   1.931       .  S
C1646      C1647   1.414       .  A
C1646     Br1651   1.924       .  S
C1647      C1648   1.415       .  A
C1648     Br1649   1.921       .  S
C1653      C1654   1.403       .  A
C1653      C1658   1.412       .  A
C1653     Br1660   1.923       .  S
C1654      C1655   1.413       .  A
C1655      C1656   1.410       .  A
C1655     Br1662   1.937       .  S
C1656      C1657   1.420       .  A
C1656     Br1661   1.935       .  S
C1657      C1658   1.430       .  A
C1658     Br1659   1.940       .  S
C1663      C1664   1.410       .  A
C1663      C1668   1.406   1_565  A
C1663     Br1670   1.922       .  S
C1664      C1665   1.421       .  A
C1665      C1666   1.407   1_565  A
C1665     Br1672   1.936       .  S
C1666      C1667   1.411       .  A
C1666     Br1671   1.933       .  S
C1667      C1668   1.402       .  A
C1668     Br1669   1.900       .  S
C1673      C1674   1.409       .  A
C1673      C1678   1.413       .  A
C1673     Br1680   1.925       .  S
C1674      C1675   1.422       .  A
C1675      C1676   1.410       .  A
C1675     Br1682   1.937       .  S
C1676      C1677   1.408       .  A
C1676     Br1681   1.933       .  S
C1677      C1678   1.419       .  A
C1678     Br1679   1.931       .  S
C1683      C1684   1.411       .  A
C1683      C1688   1.409       .  A
C1683     Br1690   1.920       .  S
C1684      C1685   1.419       .  A
C1685      C1686   1.409   1_565  A
C1685     Br1692   1.937       .  S
C1686      C1687   1.410       .  A
C1686     Br1691   1.923       .  S
C1687      C1688   1.416   1_545  A
C1688     Br1689   1.935       .  S
C1693      C1694   1.410       .  A
C1693      C1698   1.408       .  A
C1693     Br1700   1.924       .  S
C1694      C1695   1.414       .  A
C1695      C1696   1.418       .  A
C1695     Br1702   1.924       .  S
C1696      C1697   1.421       .  A
C1696     Br1701   1.920       .  S
C1697      C1698   1.415       .  A
C1698     Br1699   1.921       .  S
C1703      C1704   1.412       .  A
C1703      C1708   1.408       .  A
C1703     Br1710   1.940       .  S
C1704      C1705   1.405       .  A
C1705      C1706   1.414       .  A
C1705     Br1712   1.924       .  S
C1706      C1707   1.429       .  A
C1706     Br1711   1.937       .  S
C1707      C1708   1.423       .  A
C1708     Br1709   1.939       .  S
C1713      C1714   1.418       .  A
C1713      C1718   1.413       .  A
C1713     Br1720   1.940       .  S
C1714      C1715   1.412       .  A
C1715      C1716   1.416       .  A
C1715     Br1722   1.923       .  S
C1716      C1717   1.423       .  A
C1716     Br1721   1.938       .  S
C1717      C1718   1.425       .  A
C1718     Br1719   1.940       .  S
C1723      C1724   1.419       .  A
C1723      C1728   1.423       .  A
C1723     Br1730   1.920       .  S
C1724      C1725   1.412       .  A
C1725      C1726   1.412       .  A
C1725     Br1732   1.918       .  S
C1726      C1727   1.412       .  A
C1726     Br1731   1.917       .  S
C1727      C1728   1.416       .  A
C1728     Br1729   1.919       .  S
C1733      C1734   1.406       .  A
C1733      C1738   1.416       .  A
C1733     Br1740   1.928       .  S
C1734      C1735   1.420       .  A
C1735      C1736   1.414       .  A
C1735     Br1742   1.937       .  S
C1736      C1737   1.412       .  A
C1736     Br1741   1.932       .  S
C1737      C1738   1.428       .  A
C1738     Br1739   1.939       .  S
C1743      C1744   1.413       .  A
C1743      C1748   1.408   1_556  A
C1743     Br1750   1.935       .  S
C1744      C1745   1.412       .  A
C1745      C1746   1.413   1_556  A
C1745     Br1752   1.925       .  S
C1746      C1747   1.411       .  A
C1746     Br1751   1.915       .  S
C1747      C1748   1.417       .  A
C1748     Br1749   1.936       .  S
C1753      C1754   1.423       .  A
C1753      C1758   1.415       .  A
C1753     Br1760   1.935       .  S
C1754      C1755   1.408       .  A
C1755      C1756   1.412       .  A
C1755     Br1762   1.924       .  S
C1756      C1757   1.419       .  A
C1756     Br1761   1.932       .  S
C1757      C1758   1.408       .  A
C1758     Br1759   1.929       .  S
C1763      C1764   1.413       .  A
C1763      C1768   1.418   1_554  A
C1763     Br1770   1.929       .  S
C1764      C1765   1.418       .  A
C1765      C1766   1.410   1_554  A
C1765     Br1772   1.933       .  S
C1766      C1767   1.410       .  A
C1766     Br1771   1.928       .  S
C1767      C1768   1.416       .  A
C1768     Br1769   1.919       .  S
C1773      C1774   1.414       .  A
C1773      C1778   1.407       .  A
C1773     Br1780   1.922       .  S
C1774      C1775   1.421       .  A
C1775      C1776   1.407       .  A
C1775     Br1782   1.919       .  S
C1776      C1777   1.397       .  A
C1776     Br1781   1.924       .  S
C1777      C1778   1.414       .  A
C1778     Br1779   1.939       .  S
C1783      C1784   1.430       .  A
C1783      C1788   1.414       .  A
C1783     Br1790   1.931       .  S
C1784      C1785   1.425       .  A
C1785      C1786   1.414       .  A
C1785     Br1792   1.916       .  S
C1786      C1787   1.406       .  A
C1786     Br1791   1.934       .  S
C1787      C1788   1.400       .  A
C1788     Br1789   1.930       .  S
C1793      C1794   1.417       .  A
C1793      C1798   1.416       .  A
C1793     Br1800   1.941       .  S
C1794      C1795   1.407       .  A
C1795      C1796   1.418       .  A
C1795     Br1802   1.925       .  S
C1796      C1797   1.432       .  A
C1796     Br1801   1.940       .  S
C1797      C1798   1.424       .  A
C1798     Br1799   1.937       .  S
C1803      C1804   1.421       .  A
C1803      C1808   1.418       .  A
C1803     Br1810   1.927       .  S
C1804      C1805   1.421       .  A
C1805      C1806   1.416       .  A
C1805     Br1812   1.918       .  S
C1806      C1807   1.411       .  A
C1806     Br1811   1.922       .  S
C1807      C1808   1.414       .  A
C1808     Br1809   1.924       .  S
C1813      C1814   1.425       .  A
C1813      C1818   1.415       .  A
C1813     Br1820   1.939       .  S
C1814      C1815   1.413       .  A
C1815      C1816   1.417       .  A
C1815     Br1822   1.923       .  S
C1816      C1817   1.420       .  A
C1816     Br1821   1.933       .  S
C1817      C1818   1.413       .  A
C1818     Br1819   1.936       .  S
C1823      C1824   1.420       .  A
C1823      C1828   1.408       .  A
C1823     Br1830   1.936       .  S
C1824      C1825   1.406       .  A
C1825      C1826   1.413       .  A
C1825     Br1832   1.904       .  S
C1826      C1827   1.405       .  A
C1826     Br1831   1.909       .  S
C1827      C1828   1.416       .  A
C1828     Br1829   1.937       .  S
C1833      C1834   1.422       .  A
C1833      C1838   1.417       .  A
C1833     Br1840   1.942       .  S
C1834      C1835   1.414       .  A
C1835      C1836   1.424       .  A
C1835     Br1842   1.926       .  S
C1836      C1837   1.428       .  A
C1836     Br1841   1.937       .  S
C1837      C1838   1.427       .  A
C1838     Br1839   1.944       .  S
C1843      C1844   1.411       .  A
C1843      C1848   1.416       .  A
C1843     Br1850   1.922       .  S
C1844      C1845   1.418       .  A
C1845      C1846   1.417       .  A
C1845     Br1852   1.936       .  S
C1846      C1847   1.412       .  A
C1846     Br1851   1.920       .  S
C1847      C1848   1.420       .  A
C1848     Br1849   1.936       .  S
C1853      C1854   1.409       .  A
C1853      C1858   1.413       .  A
C1853     Br1860   1.919       .  S
C1854      C1855   1.418       .  A
C1855      C1856   1.425       .  A
C1855     Br1862   1.922       .  S
C1856      C1857   1.421       .  A
C1856     Br1861   1.927       .  S
C1857      C1858   1.420       .  A
C1858     Br1859   1.915       .  S
C1863      C1864   1.406       .  A
C1863      C1868   1.417       .  A
C1863     Br1870   1.925       .  S
C1864      C1865   1.419       .  A
C1865      C1866   1.418       .  A
C1865     Br1872   1.941       .  S
C1866      C1867   1.426       .  A
C1866     Br1871   1.938       .  S
C1867      C1868   1.431       .  A
C1868     Br1869   1.940       .  S
