geometry optimzed in LAMMPS
_audit_creation_date              2020-12-01 
_audit_creation_method            'lammps2cif' 
_symmetry_space_group_name_H-M    'P1' 
_symmetry_Int_Tables_number       1 
_symmetry_cell_setting            triclinic 
loop_ 
_symmetry_equiv_pos_as_xyz 
  x,y,z 
_cell_length_a                    35.97910019 
_cell_length_b                    35.8471990756036 
_cell_length_c                    25.949689796531988 
_cell_angle_alpha                 89.96026881780274 
_cell_angle_beta                  90.00819573487487 
_cell_angle_gamma                 120.22210276216285 
loop_ 
_atom_site_label 
_atom_site_type_symbol 
_atom_site_fract_x 
_atom_site_fract_y 
_atom_site_fract_z 
_atom_site_charge 
C1          C  0.32792460  0.16157375  0.02126522     0.30200
C2          C  0.32533263  0.16014330  0.91506229     0.30200
C3          C  0.34662774  0.13658453  0.99451830    -0.06000
C4          C  0.28265685  0.13992901  0.99695371    -0.06700
C5          C  0.35075575  0.20528335  0.99414089    -0.06600
C6          C  0.34593912  0.13618132  0.94083720    -0.06000
C7          C  0.28090504  0.14022706  0.94290584    -0.06700
C8          C  0.34938784  0.20520531  0.94049234    -0.06600
C9          C  0.36435917  0.11222906  0.92494679    -0.32000
N10         N  0.37575771  0.09852111  0.96768946     0.14500
C11         C  0.36384663  0.11190028  0.00992666    -0.32000
H12         H  0.36717775  0.10357280  0.04904185     0.16400
C13         C  0.23766077  0.12266206  0.93028521    -0.31000
N14         N  0.21405514  0.10904334  0.97422527     0.13200
C15         C  0.24094436  0.11865797  0.01476930    -0.31000
C16         C  0.37032471  0.24813628  0.92524841    -0.31300
N17         N  0.38462063  0.27305183  0.96815022     0.13700
H18         H  0.37454282  0.26042959  0.88629918     0.16400
C19         C  0.37253624  0.24733343  0.01022814    -0.31300
H20         H  0.37922713  0.25857354  0.04970337     0.16400
H21         H  0.23041964  0.11059848  0.05431988     0.16400
H22         H  0.36957788  0.10580112  0.88566623     0.16400
H23         H  0.22395742  0.12010613  0.89248961     0.16400
C24         C  0.33984681  0.17165653  0.41525413     0.30200
C25         C  0.33997054  0.17023173  0.52146720     0.30200
C26         C  0.36538178  0.15248566  0.44082903    -0.06000
C27         C  0.35831406  0.21622953  0.44237451    -0.06700
C28         C  0.29524180  0.14620295  0.44166979    -0.06600
C29         C  0.36548450  0.15229519  0.49457532    -0.06000
C30         C  0.36012661  0.21532348  0.49628802    -0.06700
C31         C  0.29608475  0.14601613  0.49533044    -0.06600
C32         C  0.39036497  0.13544765  0.51023941    -0.32000
N33         N  0.40419360  0.12386103  0.46812478     0.14500
C34         C  0.38967926  0.13431936  0.42518642    -0.32000
H35         H  0.39567945  0.12852287  0.38596561     0.16800
C36         C  0.38302616  0.25757793  0.51259117    -0.31000
N37         N  0.39105234  0.28383271  0.47163011     0.13200
C38         C  0.37536214  0.25927484  0.42858306    -0.31000
C39         C  0.25450390  0.12532964  0.51274552    -0.31300
N40         N  0.22803320  0.11222697  0.47153632     0.13700
H41         H  0.24410924  0.12026947  0.55257804     0.16400
C42         C  0.25203899  0.12505909  0.42784270    -0.31300
H43         H  0.23878476  0.12054506  0.38943416     0.16400
H44         H  0.37689281  0.27196700  0.39036082     0.16400
H45         H  0.39780016  0.13142793  0.54955643     0.16400
H46         H  0.39398846  0.26909714  0.55125271     0.16400
C47         C  0.16099910  0.32972788  0.08482839     0.30200
C48         C  0.15942168  0.32781182  0.97865928     0.30200
C49         C  0.13903228  0.35251972  0.05833055    -0.06000
C50         C  0.20484152  0.34983908  0.05746204    -0.06700
C51         C  0.13586173  0.28396038  0.05969278    -0.06600
C52         C  0.13784839  0.35087502  0.00443967    -0.06000
C53         C  0.20353858  0.34933055  0.00399574    -0.06700
C54         C  0.13565832  0.28380710  0.00567800    -0.06600
C55         C  0.11374328  0.36882716  0.98857944    -0.32000
N56         N  0.10308685  0.38410086  0.03015618     0.14500
C57         C  0.11735866  0.37374010  0.07319542    -0.32000
H58         H  0.11172907  0.38057548  0.11209134     0.16400
C59         C  0.24497032  0.36921032  0.98629579    -0.31000
N60         N  0.27159690  0.38071365  0.02732696     0.13200
C61         C  0.24779699  0.36897043  0.07126270    -0.31000
C62         C  0.11070280  0.24191977  0.98957791    -0.31300
N63         N  0.09634105  0.21610074  0.03136616     0.13700
H64         H  0.10296969  0.23067650  0.95020846     0.16400
C65         C  0.10992762  0.24091528  0.07445544    -0.31300
H66         H  0.10068789  0.22813870  0.11300252     0.16400
H67         H  0.26071263  0.37429851  0.10995640     0.16400
H68         H  0.10387935  0.37060978  0.94973950     0.16400
H69         H  0.25514821  0.37426103  0.94638334     0.16400
C70         C  0.17269759  0.34067626  0.47895282     0.30200
C71         C  0.17297063  0.34007798  0.58516706     0.30200
C72         C  0.14906595  0.36068638  0.50566136    -0.06000
C73         C  0.15366095  0.29637354  0.50468832    -0.06700
C74         C  0.21740956  0.36442023  0.50476311    -0.06600
C75         C  0.14890725  0.36076048  0.55935446    -0.06000
C76         C  0.15348381  0.29579759  0.55834840    -0.06700
C77         C  0.21801430  0.36600301  0.55879476    -0.06600
C78         C  0.12666080  0.38136823  0.57412357    -0.32000
N79         N  0.11332317  0.39257233  0.53088222     0.14500
C80         C  0.12739152  0.38076348  0.48912099    -0.32000
H81         H  0.12191761  0.38620852  0.44949499     0.16400
C82         C  0.13542807  0.25305782  0.57333662    -0.31000
N83         N  0.12482380  0.22851664  0.53010190     0.13200
C84         C  0.13659268  0.25453342  0.48833038    -0.31000
C85         C  0.26114859  0.39131889  0.57271849    -0.31300
N86         N  0.28560136  0.40074514  0.52958660     0.13700
H87         H  0.27421656  0.40220124  0.61084780     0.16400
C88         C  0.25947783  0.38353856  0.48849292    -0.31300
H89         H  0.27098828  0.38463937  0.44972266     0.16400
H90         H  0.13285379  0.24343136  0.44887668     0.16400
H91         H  0.12103245  0.38823765  0.61301213     0.16400
H92         H  0.12978381  0.24074619  0.61237349     0.16400
O93         O  0.43592740  0.01191161  0.03245174    -0.88100
C94         C  0.42685380  0.43003281  0.91824838     0.87900
Mg95       Mg  0.48267735  0.07898145  0.03268371     1.58100
O96         O  0.47329170  0.41991813  0.03260234    -0.87800
O97         O  0.41769540  0.45662332  0.08318899    -0.75200
C98         C  0.16823938  0.08790539  0.97900771     0.93000
O99         O  0.45692078  0.03253661  0.91174380    -0.75000
O100        O  0.14929639  0.10928241  0.97063564    -0.82500
Mg101      Mg  0.39959141  0.48597396  0.96199442     1.58000
C102        C  0.08259599  0.40935655  0.02606707     0.92900
O103        O  0.33684640  0.43934808  0.00320716    -0.80700
H104        H  0.46876452  0.40602615  0.10771735    -0.06100
C105        C  0.05892664  0.99429705  0.92188165     0.87800
O106        O  0.02737599  0.06786270  0.08580619    -0.75300
O107        O  0.41914556  0.43891027  0.96147945    -0.88000
O108        O  0.04492170  0.39148615  0.00687527    -0.80800
C109        C  0.40885101  0.31894391  0.97110393     0.93000
C110        C  0.31717504  0.40151610  0.02233756     0.92900
Mg111      Mg  0.08439787  0.00131491  0.03557040     1.58000
O112        O  0.14826992  0.04912666  0.99563264    -0.80800
O113        O  0.02725936  0.45472746  0.08544403    -0.75000
O114        O  0.39003015  0.33843875  0.98816284    -0.80800
O115        O  0.37804357  0.03512314  0.96112730    -0.82500
O116        O  0.09258754  0.15095388  0.01239546    -0.80900
C117        C  0.98887307  0.42547412  0.07622856     0.87300
O118        O  0.06481305  0.04915754  0.03682621    -0.88000
O119        O  0.04846735  0.47643919  0.96443894    -0.88100
O120        O  0.06834413  0.03321479  0.91555577    -0.75200
Mg121      Mg  0.40673052  0.40071784  0.03095859     1.58000
O122        O  0.44914544  0.33819931  0.96262257    -0.82500
H123        H  0.42730638  0.01438598  0.10814598    -0.06300
O124        O  0.01091230  0.06892775  0.96433312    -0.87800
H125        H  0.01531514  0.08105545  0.88870955    -0.06100
H126        H  0.07383842  0.05676623  0.11296341    -0.06300
C127        C  0.49529587  0.06219113  0.92057804     0.87300
C128        C  0.42640902  0.49513340  0.07560573     0.87900
C129        C  0.05656705  0.05823260  0.07965128     0.87900
H130        H  0.05862832  0.47582958  0.88880162    -0.06200
O131        O  0.45641069  0.42117585  0.91092032    -0.75300
Mg132      Mg  0.07796609  0.08865199  0.96846538     1.58000
H133        H  0.40909930  0.43156994  0.88548645    -0.06300
C134        C  0.39822491  0.07528064  0.97076499     0.92900
O135        O  0.03217013  0.15031615  0.03401010    -0.82500
C136        C  0.07271448  0.17007916  0.02775460     0.93000
O137        O  0.33598022  0.38027735  0.03176040    -0.82500
Mg138      Mg  0.00028807  0.40919783  0.96369415     1.58200
O139        O  0.43628074  0.09466400  0.98917299    -0.80800
O140        O  0.10413599  0.44969725  0.03575751    -0.82500
O141        O  0.02424221  0.45042933  0.46613500    -0.88100
C142        C  0.44080139  0.43997905  0.57918702     0.87900
Mg143      Mg  0.09136549  0.49797650  0.46692978     1.58100
O144        O  0.43392605  0.48862952  0.46449807    -0.87800
O145        O  0.46933116  0.43117139  0.41486326    -0.75200
C146        C  0.10262480  0.18261659  0.52643626     0.93000
O147        O  0.04312119  0.46930505  0.58747996    -0.75000
O148        O  0.12287987  0.16286129  0.53603414    -0.82500
Mg149      Mg  0.49775076  0.41274084  0.53584973     1.58000
C150        C  0.42768281  0.10160308  0.47178671     0.92900
O151        O  0.45067286  0.34942082  0.49424376    -0.80700
H152        H  0.42407706  0.48620596  0.38848221    -0.06100
C153        C  0.00616549  0.07253830  0.57850777     0.87800
O154        O  0.08137568  0.04352080  0.41464345    -0.75300
O155        O  0.45033986  0.43228064  0.53631866    -0.88000
O156        O  0.40804878  0.06298471  0.48901620    -0.80800
C157        C  0.33146640  0.42492624  0.52530838     0.93000
C158        C  0.41260902  0.32987044  0.47583531     0.92900
Mg159      Mg  0.01742939  0.10081802  0.46581209     1.58000
O160        O  0.06454315  0.16355396  0.50814188    -0.80800
O161        O  0.47179403  0.04414067  0.41409625    -0.75000
O162        O  0.35058182  0.40563754  0.50817322    -0.80800
O163        O  0.04852944  0.39241051  0.53638662    -0.82500
O164        O  0.16353124  0.10751990  0.49432350    -0.80900
C165        C  0.44197632  0.00543677  0.42129701     0.87300
O166        O  0.06406656  0.08083143  0.46569392    -0.88000
O167        O  0.48995990  0.06305589  0.53508509    -0.88100
O168        O  0.04451737  0.08138284  0.58673898    -0.75200
Mg169      Mg  0.41325669  0.42103196  0.46624883     1.58000
O170        O  0.35115306  0.46548928  0.53324551    -0.82500
H171        H  0.02720077  0.44103530  0.39070600    -0.06300
O172        O  0.08037714  0.02448186  0.53654231    -0.87800
H173        H  0.09112863  0.02731562  0.61236892    -0.06100
H174        H  0.07293741  0.09244922  0.39007604    -0.06300
C175        C  0.07289908  0.50789342  0.57982624     0.87300
C176        C  0.50780855  0.44040347  0.42288437     0.87900
C177        C  0.07340125  0.07369411  0.42245870     0.87900
H178        H  0.48666496  0.07176584  0.61064256    -0.06200
O179        O  0.43225127  0.46993934  0.58594910    -0.75300
Mg180      Mg  0.10094304  0.09167709  0.53571420     1.58000
H181        H  0.44123003  0.42171145  0.61212402    -0.06300
C182        C  0.08878069  0.41370566  0.52726017     0.92900
O183        O  0.16242215  0.04816120  0.46636670    -0.82500
C184        C  0.18231473  0.08843199  0.47583951     0.93000
O185        O  0.39193483  0.34931437  0.46623469    -0.82500
Mg186      Mg  0.42267002  0.01581029  0.53313507     1.58200
O187        O  0.10735490  0.45190603  0.50922290    -0.80800
O188        O  0.46809964  0.12244847  0.46430957    -0.82500
C189        C  0.16228620  0.32776094  0.91948394    -0.19600
C190        C  0.17154057  0.29880775  0.89247424     0.36600
C191        C  0.17155884  0.29872701  0.83823795    -0.25600
C192        C  0.16596483  0.32895536  0.81028767     0.03000
C193        C  0.16222623  0.36106111  0.83674983     0.27800
C194        C  0.16181587  0.36088600  0.89077354    -0.24700
N195        N  0.18230671  0.27056244  0.91973038    -0.82100
H196        H  0.17689320  0.27558080  0.81755258     0.13600
C197        C  0.16722335  0.32891808  0.75324107     0.03000
N198        N  0.15987630  0.39436365  0.80854826    -0.80700
H199        H  0.16351674  0.38828454  0.91004364     0.18500
C200        C  0.13039293  0.32006257  0.72536620    -0.25500
C201        C  0.13087862  0.32165064  0.67118281     0.36500
C202        C  0.17017842  0.33567991  0.64420356    -0.19600
C203        C  0.20546145  0.33985427  0.67263180    -0.24800
C204        C  0.20485348  0.33787192  0.72668456     0.27900
H205        H  0.10092670  0.31117705  0.74609804     0.13600
N206        N  0.09131258  0.30799827  0.64385524    -0.82100
H207        H  0.23323115  0.34295738  0.65310467     0.18500
N208        N  0.24234043  0.34499255  0.75476189    -0.80700
H209        H  0.06593118  0.29984093  0.66948766     0.34100
H210        H  0.08371589  0.27981039  0.62375859     0.38600
H211        H  0.26740533  0.35103176  0.72947724     0.34100
H212        H  0.25292644  0.37298348  0.77671922     0.30800
H213        H  0.15677709  0.41541239  0.83369960     0.34100
H214        H  0.18908659  0.41261744  0.78915354     0.30800
H215        H  0.21166755  0.28962595  0.93836828     0.38600
H216        H  0.18706450  0.25085044  0.89412723     0.34100
C217        C  0.16509840  0.33368630  0.14383447    -0.19600
C218        C  0.17767385  0.37336463  0.16941309     0.36600
C219        C  0.17706290  0.37457175  0.22353829    -0.25600
C220        C  0.16852314  0.33842366  0.25316185     0.03000
C221        C  0.16151417  0.30061042  0.22808270     0.27800
C222        C  0.16049499  0.29890801  0.17395958    -0.24700
N223        N  0.19198009  0.41261495  0.14072996    -0.82100
H224        H  0.18403003  0.40420392  0.24280504     0.13600
C225        C  0.16886400  0.34107662  0.31038192     0.03000
N226        N  0.15633213  0.26436711  0.25771222    -0.80700
H227        H  0.15841283  0.27099004  0.15571180     0.18500
C228        C  0.13254372  0.31132774  0.33826348    -0.25500
C229        C  0.13199269  0.31195997  0.39248226     0.36500
C230        C  0.16980171  0.34141110  0.41977861    -0.19600
C231        C  0.20346470  0.37463775  0.39118884    -0.24800
C232        C  0.20439338  0.37374017  0.33717711     0.27900
H233        H  0.10421377  0.28788693  0.31747195     0.13600
N234        N  0.09284361  0.28343735  0.41945285    -0.82100
H235        H  0.22884293  0.40234376  0.41048852     0.18500
N236        N  0.24150404  0.40569429  0.30953904    -0.80700
H237        H  0.06868426  0.26327929  0.39371781     0.34100
H238        H  0.08201781  0.30228408  0.43742684     0.38600
H239        H  0.26484813  0.42750007  0.33501307     0.34100
H240        H  0.25517122  0.38972640  0.29064586     0.30800
H241        H  0.15117385  0.23887450  0.23353344     0.34100
H242        H  0.18525837  0.27402280  0.27709078     0.30800
H243        H  0.22089379  0.42023057  0.12268759     0.38600
H244        H  0.19889649  0.43839163  0.16535400     0.34100
C245        C  0.32702983  0.15891758  0.85588956    -0.19600
C246        C  0.36570564  0.18548624  0.82820651     0.36600
C247        C  0.36513137  0.18567997  0.77406916    -0.25600
C248        C  0.32801527  0.15752398  0.74659588     0.03000
C249        C  0.29111377  0.12726499  0.77354189     0.27800
C250        C  0.29137347  0.12767932  0.82773651    -0.24700
N251        N  0.40574846  0.21150272  0.85475092    -0.82100
H252        H  0.39413091  0.20731699  0.75296830     0.13600
C253        C  0.32891242  0.15988989  0.68955078     0.03000
N254        N  0.25356312  0.09628113  0.74578488    -0.80700
H255        H  0.26402676  0.10233148  0.84755436     0.18500
C256        C  0.32410465  0.12491380  0.66040543    -0.25500
C257        C  0.32608362  0.12684267  0.60623437     0.36500
C258        C  0.33607603  0.16596314  0.58055615    -0.19600
C259        C  0.33601954  0.19880860  0.61029252    -0.24800
C260        C  0.33380704  0.19676337  0.66426700     0.27900
H261        H  0.31840080  0.09582281  0.68008774     0.13600
N262        N  0.31692393  0.08879856  0.57759958    -0.82100
H263        H  0.33525279  0.22529637  0.59187750     0.18500
N264        N  0.33578358  0.23174494  0.69359926    -0.80700
H265        H  0.31170820  0.06359859  0.60238049     0.34100
H266        H  0.28814870  0.07833118  0.55765974     0.38600
H267        H  0.33989173  0.25682520  0.66929878     0.34100
H268        H  0.30608504  0.22019650  0.71190208     0.30800
H269        H  0.22917059  0.07606413  0.77131423     0.34100
H270        H  0.24189416  0.11330351  0.72514129     0.30800
H271        H  0.41404767  0.19075188  0.87299292     0.38600
H272        H  0.43054348  0.22985746  0.82872624     0.34100
C273        C  0.34086745  0.17090916  0.35602428    -0.19600
C274        C  0.37611751  0.20241340  0.32700639     0.36600
C275        C  0.37349198  0.20269187  0.27298741    -0.25600
C276        C  0.33858558  0.16932358  0.24664052     0.03000
C277        C  0.30815587  0.13304745  0.27480748     0.27800
C278        C  0.30936580  0.13449876  0.32904084    -0.24700
N279        N  0.41586164  0.23208612  0.35152788    -0.82100
H280        H  0.39955125  0.22848867  0.25139718     0.13600
C281        C  0.33694446  0.17069735  0.18946085     0.03000
N282        N  0.27881316  0.09359903  0.24860917    -0.80700
H283        H  0.28675150  0.10602463  0.35008779     0.18500
C284        C  0.37072582  0.17270508  0.16048606    -0.25500
C285        C  0.36990166  0.17319709  0.10642168     0.36500
C286        C  0.33209092  0.16574091  0.08031543    -0.19600
C287        C  0.30175016  0.17068981  0.10941680    -0.24800
C288        C  0.30411068  0.17379864  0.16357373     0.27900
H289        H  0.39858632  0.17529587  0.17995046     0.13600
N290        N  0.40867775  0.18475008  0.07870379    -0.82100
H291        H  0.27741851  0.17461796  0.08996126     0.18500
N292        N  0.27592559  0.18411969  0.19163396    -0.80700
H293        H  0.42005566  0.16442426  0.09058259     0.34100
H294        H  0.43173960  0.21613844  0.08946737     0.38600
H295        H  0.25521483  0.18763858  0.16646226     0.34100
H296        H  0.25640841  0.15854817  0.21606301     0.30800
H297        H  0.26036741  0.06926077  0.27512965     0.34100
H298        H  0.25715448  0.09843607  0.22701228     0.30800
H299        H  0.43942341  0.22553500  0.33824860     0.38600
H300        H  0.42478577  0.26330453  0.33935784     0.34100
C301        C  0.32792456  0.66157371  0.02126522     0.30200
C302        C  0.32533260  0.66014324  0.91506229     0.30200
C303        C  0.34662766  0.63658444  0.99451831    -0.06000
C304        C  0.28265680  0.63992893  0.99695373    -0.06700
C305        C  0.35075567  0.70528330  0.99414089    -0.06600
C306        C  0.34593902  0.63618121  0.94083720    -0.06000
C307        C  0.28090501  0.64022701  0.94290585    -0.06700
C308        C  0.34938783  0.70520526  0.94049235    -0.06600
C309        C  0.36435907  0.61222894  0.92494679    -0.32000
N310        N  0.37575757  0.59852097  0.96768948     0.14500
C311        C  0.36384648  0.61190013  0.00992668    -0.32000
H312        H  0.36717766  0.60357266  0.04904185     0.16400
C313        C  0.23766075  0.62266201  0.93028519    -0.31000
N314        N  0.21405511  0.60904334  0.97422526     0.13200
C315        C  0.24094432  0.61865794  0.01476931    -0.31000
C316        C  0.37032478  0.74813625  0.92524844    -0.31300
N317        N  0.38462060  0.77305179  0.96815026     0.13700
H318        H  0.37454294  0.76042953  0.88629918     0.16400
C319        C  0.37253611  0.74733339  0.01022816    -0.31300
H320        H  0.37922695  0.75857345  0.04970341     0.16400
H321        H  0.23041957  0.61059849  0.05431988     0.16400
H322        H  0.36957794  0.60580111  0.88566626     0.16400
H323        H  0.22395742  0.62010602  0.89248957     0.16400
C324        C  0.33984677  0.67165654  0.41525413     0.30200
C325        C  0.33997049  0.67023168  0.52146720     0.30200
C326        C  0.36538176  0.65248566  0.44082902    -0.06000
C327        C  0.35831402  0.71622951  0.44237451    -0.06700
C328        C  0.29524173  0.64620297  0.44166980    -0.06600
C329        C  0.36548447  0.65229516  0.49457531    -0.06000
C330        C  0.36012654  0.71532344  0.49628803    -0.06700
C331        C  0.29608468  0.64601607  0.49533046    -0.06600
C332        C  0.39036490  0.63544759  0.51023944    -0.32000
N333        N  0.40419362  0.62386104  0.46812482     0.14500
C334        C  0.38967934  0.63431944  0.42518644    -0.32000
H335        H  0.39567967  0.62852302  0.38596566     0.16800
C336        C  0.38302607  0.75757789  0.51259121    -0.31000
N337        N  0.39105234  0.78383266  0.47163013     0.13200
C338        C  0.37536217  0.75927483  0.42858306    -0.31000
C339        C  0.25450382  0.62532955  0.51274551    -0.31300
N340        N  0.22803314  0.61222691  0.47153631     0.13700
H341        H  0.24410910  0.62026938  0.55257801     0.16400
C342        C  0.25203892  0.62505913  0.42784269    -0.31300
H343        H  0.23878465  0.62054509  0.38943417     0.16400
H344        H  0.37689291  0.77196700  0.39036080     0.16400
H345        H  0.39780001  0.63142776  0.54955646     0.16400
H346        H  0.39398830  0.76909708  0.55125277     0.16400
C347        C  0.16099912  0.82972791  0.08482844     0.30200
C348        C  0.15942165  0.82781182  0.97865936     0.30200
C349        C  0.13903233  0.85251979  0.05833063    -0.06000
C350        C  0.20484151  0.84983909  0.05746207    -0.06700
C351        C  0.13586173  0.78396041  0.05969283    -0.06600
C352        C  0.13784838  0.85087505  0.00443977    -0.06000
C353        C  0.20353854  0.84933051  0.00399578    -0.06700
C354        C  0.13565825  0.78380713  0.00567805    -0.06600
C355        C  0.11374316  0.86882708  0.98857955    -0.32000
N356        N  0.10308687  0.88410091  0.03015625     0.14500
C357        C  0.11735876  0.87374022  0.07319551    -0.32000
H358        H  0.11172923  0.88057567  0.11209141     0.16400
C359        C  0.24497027  0.86921020  0.98629581    -0.31000
N360        N  0.27159688  0.88071364  0.02732697     0.13200
C361        C  0.24779697  0.86897039  0.07126271    -0.31000
C362        C  0.11070269  0.74191983  0.98957792    -0.31300
N363        N  0.09634098  0.71610077  0.03136614     0.13700
H364        H  0.10296960  0.73067656  0.95020847     0.16400
C365        C  0.10992766  0.74091529  0.07445545    -0.31300
H366        H  0.10068799  0.72813866  0.11300251     0.16400
H367        H  0.26071256  0.87429835  0.10995643     0.16400
H368        H  0.10387910  0.87060954  0.94973961     0.16400
H369        H  0.25514809  0.87426076  0.94638333     0.16400
C370        C  0.17269766  0.84067636  0.47895284     0.30200
C371        C  0.17297061  0.84007802  0.58516710     0.30200
C372        C  0.14906601  0.86068646  0.50566140    -0.06000
C373        C  0.15366101  0.79637362  0.50468835    -0.06700
C374        C  0.21740959  0.86442035  0.50476315    -0.06600
C375        C  0.14890723  0.86076051  0.55935450    -0.06000
C376        C  0.15348380  0.79579765  0.55834842    -0.06700
C377        C  0.21801430  0.86600308  0.55879481    -0.06600
C378        C  0.12666072  0.88136821  0.57412359    -0.32000
N379        N  0.11332308  0.89257225  0.53088223     0.14500
C380        C  0.12739156  0.88076352  0.48912102    -0.32000
H381        H  0.12191770  0.88620859  0.44949503     0.16400
C382        C  0.13542815  0.75305787  0.57333665    -0.31000
N383        N  0.12482395  0.72851668  0.53010196     0.13200
C384        C  0.13659282  0.75453349  0.48833045    -0.31000
C385        C  0.26114860  0.89131882  0.57271854    -0.31300
N386        N  0.28560137  0.90074512  0.52958664     0.13700
H387        H  0.27421657  0.90220102  0.61084788     0.16400
C388        C  0.25947785  0.88353862  0.48849294    -0.31300
H389        H  0.27098829  0.88463939  0.44972268     0.16400
H390        H  0.13285395  0.74343144  0.44887675     0.16400
H391        H  0.12103233  0.88823766  0.61301211     0.16400
H392        H  0.12978393  0.74074623  0.61237351     0.16400
O393        O  0.43592742  0.51191156  0.03245171    -0.88100
C394        C  0.42685380  0.93003283  0.91824839     0.87900
Mg395      Mg  0.48267736  0.57898142  0.03268370     1.58100
O396        O  0.47329176  0.91991828  0.03260236    -0.87800
O397        O  0.41769529  0.95662329  0.08318891    -0.75200
C398        C  0.16823935  0.58790533  0.97900769     0.93000
O399        O  0.45692075  0.53253677  0.91174383    -0.75000
O400        O  0.14929629  0.60928228  0.97063563    -0.82500
Mg401      Mg  0.39959141  0.98597389  0.96199443     1.58000
C402        C  0.08259606  0.90935664  0.02606713     0.92900
O403        O  0.33684639  0.93934805  0.00320710    -0.80700
H404        H  0.46876460  0.90602617  0.10771735    -0.06100
C405        C  0.05892660  0.49429707  0.92188167     0.87800
O406        O  0.02737608  0.56786277  0.08580619    -0.75300
O407        O  0.41914553  0.93891022  0.96147948    -0.88000
O408        O  0.04492179  0.89148626  0.00687529    -0.80800
C409        C  0.40885104  0.81894391  0.97110395     0.93000
C410        C  0.31717503  0.90151611  0.02233755     0.92900
Mg411      Mg  0.08439783  0.50131490  0.03557041     1.58000
O412        O  0.14826994  0.54912659  0.99563261    -0.80800
O413        O  0.02725945  0.95472747  0.08544402    -0.75000
O414        O  0.39003020  0.83843877  0.98816288    -0.80800
O415        O  0.37804359  0.53512314  0.96112730    -0.82500
O416        O  0.09258753  0.65095394  0.01239539    -0.80900
C417        C  0.98887315  0.92547421  0.07622856     0.87300
O418        O  0.06481313  0.54915762  0.03682621    -0.88000
O419        O  0.04846744  0.97643915  0.96443891    -0.88100
O420        O  0.06834417  0.53321484  0.91555576    -0.75200
Mg421      Mg  0.40673053  0.90071787  0.03095861     1.58000
O422        O  0.44914545  0.83819929  0.96262254    -0.82500
H423        H  0.42730621  0.51438596  0.10814588    -0.06300
O424        O  0.01091231  0.56892776  0.96433311    -0.87800
H425        H  0.01531515  0.58105549  0.88870953    -0.06100
H426        H  0.07383858  0.55676640  0.11296338    -0.06300
C427        C  0.49529589  0.56219121  0.92057804     0.87300
C428        C  0.42640905  0.99513343  0.07560575     0.87900
C429        C  0.05656717  0.55823271  0.07965128     0.87900
H430        H  0.05862839  0.97582955  0.88880160    -0.06200
O431        O  0.45641074  0.92117594  0.91092026    -0.75300
Mg432      Mg  0.07796607  0.58865198  0.96846536     1.58000
H433        H  0.40909932  0.93157007  0.88548650    -0.06300
C434        C  0.39822485  0.57528061  0.97076501     0.92900
O435        O  0.03217010  0.65031613  0.03401013    -0.82500
C436        C  0.07271446  0.67007919  0.02775457     0.93000
O437        O  0.33598021  0.88027735  0.03176044    -0.82500
Mg438      Mg  0.00028810  0.90919786  0.96369414     1.58200
O439        O  0.43628070  0.59466402  0.98917305    -0.80800
O440        O  0.10413611  0.94969735  0.03575752    -0.82500
O441        O  0.02424224  0.95042922  0.46613494    -0.88100
C442        C  0.44080151  0.93997915  0.57918702     0.87900
Mg443      Mg  0.09136553  0.99797653  0.46692978     1.58100
O444        O  0.43392594  0.98862951  0.46449807    -0.87800
O445        O  0.46933121  0.93117147  0.41486324    -0.75200
C446        C  0.10262489  0.68261663  0.52643632     0.93000
O447        O  0.04312124  0.96930511  0.58747996    -0.75000
O448        O  0.12287990  0.66286127  0.53603423    -0.82500
Mg449      Mg  0.49775075  0.91274084  0.53584973     1.58000
C450        C  0.42768283  0.60160310  0.47178673     0.92900
O451        O  0.45067284  0.84942078  0.49424376    -0.80700
H452        H  0.42407693  0.98620593  0.38848221    -0.06100
C453        C  0.00616548  0.57253824  0.57850779     0.87800
O454        O  0.08137567  0.54352072  0.41464347    -0.75300
O455        O  0.45033996  0.93228076  0.53631865    -0.88000
O456        O  0.40804881  0.56298471  0.48901615    -0.80800
C457        C  0.33146642  0.92492626  0.52530839     0.93000
C458        C  0.41260901  0.82987040  0.47583533     0.92900
Mg459      Mg  0.01742942  0.60081803  0.46581212     1.58000
O460        O  0.06454324  0.66355401  0.50814192    -0.80800
O461        O  0.47179409  0.54414071  0.41409627    -0.75000
O462        O  0.35058186  0.90563756  0.50817331    -0.80800
O463        O  0.04852938  0.89241046  0.53638663    -0.82500
O464        O  0.16353123  0.60751988  0.49432348    -0.80900
C465        C  0.44197644  0.50543679  0.42129701     0.87300
O466        O  0.06406664  0.58083146  0.46569388    -0.88000
O467        O  0.48995987  0.56305587  0.53508512    -0.88100
O468        O  0.04451733  0.58138272  0.58673895    -0.75200
Mg469      Mg  0.41325670  0.92103198  0.46624886     1.58000
O470        O  0.35115304  0.96548930  0.53324546    -0.82500
H471        H  0.02720078  0.94103520  0.39070596    -0.06300
O472        O  0.08037715  0.52448182  0.53654229    -0.87800
H473        H  0.09112859  0.52731548  0.61236893    -0.06100
H474        H  0.07293766  0.59244926  0.39007599    -0.06300
C475        C  0.07289908  0.00789349  0.57982626     0.87300
C476        C  0.50780854  0.94040340  0.42288433     0.87900
C477        C  0.07340137  0.57369412  0.42245868     0.87900
H478        H  0.48666497  0.57176586  0.61064258    -0.06200
O479        O  0.43225136  0.96993941  0.58594912    -0.75300
Mg480      Mg  0.10094304  0.59167705  0.53571419     1.58000
H481        H  0.44123019  0.92171155  0.61212402    -0.06300
C482        C  0.08878065  0.91370560  0.52726013     0.92900
O483        O  0.16242210  0.54816114  0.46636673    -0.82500
C484        C  0.18231470  0.58843195  0.47583950     0.93000
O485        O  0.39193480  0.84931430  0.46623474    -0.82500
Mg486      Mg  0.42267003  0.51581026  0.53313506     1.58200
O487        O  0.10735490  0.95190596  0.50922288    -0.80800
O488        O  0.46809967  0.62244849  0.46430961    -0.82500
C489        C  0.16228623  0.82776092  0.91948403    -0.19600
C490        C  0.17154064  0.79880778  0.89247432     0.36600
C491        C  0.17155887  0.79872704  0.83823802    -0.25600
C492        C  0.16596490  0.82895540  0.81028777     0.03000
C493        C  0.16222636  0.86106112  0.83674994     0.27800
C494        C  0.16181598  0.86088603  0.89077366    -0.24700
N495        N  0.18230685  0.77056250  0.91973042    -0.82100
H496        H  0.17689318  0.77558082  0.81755260     0.13600
C497        C  0.16722336  0.82891808  0.75324115     0.03000
N498        N  0.15987634  0.89436363  0.80854839    -0.80700
H499        H  0.16351680  0.88828450  0.91004383     0.18500
C500        C  0.13039290  0.82006241  0.72536632    -0.25500
C501        C  0.13087856  0.82165051  0.67118292     0.36500
C502        C  0.17017838  0.83567989  0.64420361    -0.19600
C503        C  0.20546137  0.83985411  0.67263182    -0.24800
C504        C  0.20485343  0.83787184  0.72668460     0.27900
H505        H  0.10092664  0.81117679  0.74609818     0.13600
N506        N  0.09131255  0.80799812  0.64385538    -0.82100
H507        H  0.23323103  0.84295716  0.65310469     0.18500
N508        N  0.24234042  0.84499265  0.75476192    -0.80700
H509        H  0.06593103  0.79984056  0.66948797     0.34100
H510        H  0.08371590  0.77981031  0.62375867     0.38600
H511        H  0.26740532  0.85103185  0.72947734     0.34100
H512        H  0.25292632  0.87298368  0.77671910     0.30800
H513        H  0.15677711  0.91541228  0.83369962     0.34100
H514        H  0.18908655  0.91261735  0.78915356     0.30800
H515        H  0.21166770  0.78962606  0.93836826     0.38600
H516        H  0.18706467  0.75085051  0.89412725     0.34100
C517        C  0.16509850  0.83368636  0.14383451    -0.19600
C518        C  0.17767396  0.87336467  0.16941309     0.36600
C519        C  0.17706300  0.87457185  0.22353830    -0.25600
C520        C  0.16852317  0.83842374  0.25316186     0.03000
C521        C  0.16151427  0.80061052  0.22808270     0.27800
C522        C  0.16049512  0.79890810  0.17395959    -0.24700
N523        N  0.19198020  0.91261499  0.14072994    -0.82100
H524        H  0.18403019  0.90420405  0.24280500     0.13600
C525        C  0.16886407  0.84107668  0.31038192     0.03000
N526        N  0.15633228  0.76436724  0.25771223    -0.80700
H527        H  0.15841293  0.77099012  0.15571180     0.18500
C528        C  0.13254381  0.81132779  0.33826349    -0.25500
C529        C  0.13199280  0.81196006  0.39248226     0.36500
C530        C  0.16980180  0.84141119  0.41977862    -0.19600
C531        C  0.20346481  0.87463780  0.39118884    -0.24800
C532        C  0.20439350  0.87374020  0.33717710     0.27900
H533        H  0.10421386  0.78788698  0.31747196     0.13600
N534        N  0.09284374  0.78343745  0.41945286    -0.82100
H535        H  0.22884302  0.90234383  0.41048849     0.18500
N536        N  0.24150411  0.90569435  0.30953900    -0.80700
H537        H  0.06868441  0.76327932  0.39371783     0.34100
H538        H  0.08201795  0.80228418  0.43742678     0.38600
H539        H  0.26484826  0.92750020  0.33501313     0.34100
H540        H  0.25517138  0.88972654  0.29064582     0.30800
H541        H  0.15117403  0.73887464  0.23353344     0.34100
H542        H  0.18525852  0.77402296  0.27709078     0.30800
H543        H  0.22089397  0.92023056  0.12268747     0.38600
H544        H  0.19889656  0.93839153  0.16535375     0.34100
C545        C  0.32702984  0.65891753  0.85588955    -0.19600
C546        C  0.36570568  0.68548612  0.82820654     0.36600
C547        C  0.36513144  0.68567991  0.77406918    -0.25600
C548        C  0.32801534  0.65752399  0.74659590     0.03000
C549        C  0.29111387  0.62726494  0.77354186     0.27800
C550        C  0.29137354  0.62767925  0.82773649    -0.24700
N551        N  0.40574848  0.71150259  0.85475092    -0.82100
H552        H  0.39413098  0.70731694  0.75296835     0.13600
C553        C  0.32891254  0.65988996  0.68955080     0.03000
N554        N  0.25356319  0.59628116  0.74578484    -0.80700
H555        H  0.26402682  0.60233141  0.84755431     0.18500
C556        C  0.32410480  0.62491389  0.66040547    -0.25500
C557        C  0.32608373  0.62684269  0.60623442     0.36500
C558        C  0.33607609  0.66596318  0.58055616    -0.19600
C559        C  0.33601957  0.69880865  0.61029251    -0.24800
C560        C  0.33380711  0.69676346  0.66426701     0.27900
H561        H  0.31840094  0.59582288  0.68008780     0.13600
N562        N  0.31692400  0.58879858  0.57759963    -0.82100
H563        H  0.33525266  0.72529636  0.59187750     0.18500
N564        N  0.33578349  0.73174498  0.69359923    -0.80700
H565        H  0.31170820  0.56359846  0.60238069     0.34100
H566        H  0.28814879  0.57833117  0.55765982     0.38600
H567        H  0.33989156  0.75682518  0.66929870     0.34100
H568        H  0.30608489  0.72019645  0.71190197     0.30800
H569        H  0.22917062  0.57606416  0.77131414     0.34100
H570        H  0.24189430  0.61330365  0.72514135     0.30800
H571        H  0.41404767  0.69075160  0.87299305     0.38600
H572        H  0.43054346  0.72985723  0.82872635     0.34100
C573        C  0.34086745  0.67090925  0.35602428    -0.19600
C574        C  0.37611753  0.70241343  0.32700642     0.36600
C575        C  0.37349205  0.70269192  0.27298744    -0.25600
C576        C  0.33858564  0.66932365  0.24664052     0.03000
C577        C  0.30815594  0.63304753  0.27480745     0.27800
C578        C  0.30936586  0.63449883  0.32904083    -0.24700
N579        N  0.41586173  0.73208606  0.35152792    -0.82100
H580        H  0.39955134  0.72848872  0.25139727     0.13600
C581        C  0.33694450  0.67069745  0.18946085     0.03000
N582        N  0.27881316  0.59359916  0.24860918    -0.80700
H583        H  0.28675157  0.60602470  0.35008778     0.18500
C584        C  0.37072578  0.67270499  0.16048605    -0.25500
C585        C  0.36990171  0.67319715  0.10642166     0.36500
C586        C  0.33209096  0.66574100  0.08031543    -0.19600
C587        C  0.30175020  0.67068992  0.10941680    -0.24800
C588        C  0.30411070  0.67379878  0.16357373     0.27900
H589        H  0.39858621  0.67529559  0.17995045     0.13600
N590        N  0.40867781  0.68475008  0.07870380    -0.82100
H591        H  0.27741853  0.67461801  0.08996123     0.18500
N592        N  0.27592560  0.68411980  0.19163397    -0.80700
H593        H  0.42005562  0.66442442  0.09058237     0.34100
H594        H  0.43173992  0.71613872  0.08946761     0.38600
H595        H  0.25521469  0.68763866  0.16646213     0.34100
H596        H  0.25640840  0.65854837  0.21606305     0.30800
H597        H  0.26036739  0.56926096  0.27512957     0.34100
H598        H  0.25715432  0.59843631  0.22701227     0.30800
H599        H  0.43942349  0.72553477  0.33824853     0.38600
H600        H  0.42478592  0.76330430  0.33935806     0.34100
C601        C  0.82792459  0.16157374  0.02126522     0.30200
C602        C  0.82533262  0.16014330  0.91506229     0.30200
C603        C  0.84662774  0.13658453  0.99451831    -0.06000
C604        C  0.78265683  0.13992896  0.99695371    -0.06700
C605        C  0.85075574  0.20528334  0.99414090    -0.06600
C606        C  0.84593911  0.13618132  0.94083720    -0.06000
C607        C  0.78090503  0.14022706  0.94290585    -0.06700
C608        C  0.84938783  0.20520531  0.94049235    -0.06600
C609        C  0.86435916  0.11222906  0.92494679    -0.32000
N610        N  0.87575771  0.09852111  0.96768946     0.14500
C611        C  0.86384662  0.11190028  0.00992666    -0.32000
H612        H  0.86717775  0.10357280  0.04904185     0.16400
C613        C  0.73766076  0.12266206  0.93028521    -0.31000
N614        N  0.71405513  0.10904329  0.97422526     0.13200
C615        C  0.74094434  0.11865784  0.01476928    -0.31000
C616        C  0.87032471  0.24813628  0.92524841    -0.31300
N617        N  0.88462063  0.27305183  0.96815022     0.13700
H618        H  0.87454281  0.26042959  0.88629918     0.16400
C619        C  0.87253624  0.24733343  0.01022814    -0.31300
H620        H  0.87922712  0.25857354  0.04970337     0.16400
H621        H  0.73041962  0.11059828  0.05431985     0.16400
H622        H  0.86957788  0.10580112  0.88566623     0.16400
H623        H  0.72395743  0.12010617  0.89248961     0.16400
C624        C  0.83984681  0.17165653  0.41525414     0.30200
C625        C  0.83997054  0.17023173  0.52146721     0.30200
C626        C  0.86538177  0.15248566  0.44082904    -0.06000
C627        C  0.85831406  0.21622953  0.44237452    -0.06700
C628        C  0.79524180  0.14620295  0.44166980    -0.06600
C629        C  0.86548450  0.15229519  0.49457533    -0.06000
C630        C  0.86012661  0.21532348  0.49628804    -0.06700
C631        C  0.79608474  0.14601613  0.49533046    -0.06600
C632        C  0.89036497  0.13544765  0.51023942    -0.32000
N633        N  0.90419358  0.12386102  0.46812479     0.14500
C634        C  0.88967925  0.13431936  0.42518642    -0.32000
H635        H  0.89567945  0.12852287  0.38596562     0.16800
C636        C  0.88302616  0.25757793  0.51259118    -0.31000
N637        N  0.89105234  0.28383271  0.47163011     0.13200
C638        C  0.87536214  0.25927484  0.42858306    -0.31000
C639        C  0.75450389  0.12532964  0.51274552    -0.31300
N640        N  0.72803320  0.11222697  0.47153632     0.13700
H641        H  0.74410923  0.12026946  0.55257805     0.16400
C642        C  0.75203899  0.12505909  0.42784271    -0.31300
H643        H  0.73878476  0.12054506  0.38943416     0.16400
H644        H  0.87689281  0.27196700  0.39036082     0.16400
H645        H  0.89780016  0.13142792  0.54955644     0.16400
H646        H  0.89398846  0.26909714  0.55125272     0.16400
C647        C  0.66099912  0.32972788  0.08482839     0.30200
C648        C  0.65942169  0.32781182  0.97865928     0.30200
C649        C  0.63903227  0.35251969  0.05833055    -0.06000
C650        C  0.70484154  0.34983910  0.05746204    -0.06700
C651        C  0.63586182  0.28396038  0.05969277    -0.06600
C652        C  0.63784838  0.35087499  0.00443968    -0.06000
C653        C  0.70353859  0.34933057  0.00399573    -0.06700
C654        C  0.63565837  0.28380709  0.00567799    -0.06600
C655        C  0.61374328  0.36882716  0.98857944    -0.32000
N656        N  0.60308685  0.38410086  0.03015618     0.14500
C657        C  0.61735866  0.37374009  0.07319542    -0.32000
H658        H  0.61172907  0.38057548  0.11209134     0.16400
C659        C  0.74497033  0.36921033  0.98629578    -0.31000
N660        N  0.77159690  0.38071366  0.02732696     0.13200
C661        C  0.74779700  0.36897043  0.07126270    -0.31000
C662        C  0.61070280  0.24191977  0.98957791    -0.31300
N663        N  0.59634105  0.21610074  0.03136616     0.13700
H664        H  0.60296966  0.23067651  0.95020847     0.16400
C665        C  0.60992766  0.24091528  0.07445544    -0.31300
H666        H  0.60068787  0.22813873  0.11300252     0.16400
H667        H  0.76071264  0.37429851  0.10995640     0.16400
H668        H  0.60387935  0.37060978  0.94973950     0.16400
H669        H  0.75514821  0.37426103  0.94638334     0.16400
C670        C  0.67269760  0.34067627  0.47895281     0.30200
C671        C  0.67297064  0.34007798  0.58516705     0.30200
C672        C  0.64906596  0.36068637  0.50566138    -0.06000
C673        C  0.65366096  0.29637353  0.50468831    -0.06700
C674        C  0.71740958  0.36442027  0.50476310    -0.06600
C675        C  0.64890725  0.36076048  0.55935446    -0.06000
C676        C  0.65348382  0.29579760  0.55834840    -0.06700
C677        C  0.71801431  0.36600302  0.55879476    -0.06600
C678        C  0.62666080  0.38136823  0.57412358    -0.32000
N679        N  0.61332316  0.39257233  0.53088225     0.14500
C680        C  0.62739152  0.38076347  0.48912102    -0.32000
H681        H  0.62191762  0.38620851  0.44949503     0.16400
C682        C  0.63542808  0.25305784  0.57333665    -0.31000
N683        N  0.62482379  0.22851664  0.53010195     0.13200
C684        C  0.63659266  0.25453339  0.48833041    -0.31000
C685        C  0.76114860  0.39131889  0.57271850    -0.31300
N686        N  0.78560137  0.40074518  0.52958661     0.13700
H687        H  0.77421655  0.40220121  0.61084783     0.16400
C688        C  0.75947786  0.38353869  0.48849290    -0.31300
H689        H  0.77098832  0.38463957  0.44972263     0.16400
H690        H  0.63285376  0.24343131  0.44887672     0.16400
H691        H  0.62103245  0.38823765  0.61301213     0.16400
H692        H  0.62978383  0.24074623  0.61237353     0.16400
O693        O  0.93592739  0.01191161  0.03245174    -0.88100
C694        C  0.92685380  0.43003282  0.91824838     0.87900
Mg695      Mg  0.98267735  0.07898145  0.03268371     1.58100
O696        O  0.97329169  0.41991813  0.03260234    -0.87800
O697        O  0.91769532  0.45662319  0.08318895    -0.75200
C698        C  0.66823936  0.08790538  0.97900770     0.93000
O699        O  0.95692078  0.03253661  0.91174381    -0.75000
O700        O  0.64929639  0.10928241  0.97063564    -0.82500
Mg701      Mg  0.89959141  0.48597396  0.96199443     1.58000
C702        C  0.58259599  0.40935655  0.02606707     0.92900
O703        O  0.83684639  0.43934808  0.00320716    -0.80700
H704        H  0.96876452  0.40602615  0.10771736    -0.06100
C705        C  0.55892664  0.99429705  0.92188165     0.87800
O706        O  0.52737598  0.06786270  0.08580619    -0.75300
O707        O  0.91914555  0.43891027  0.96147945    -0.88000
O708        O  0.54492170  0.39148615  0.00687527    -0.80800
C709        C  0.90885101  0.31894391  0.97110393     0.93000
C710        C  0.81717503  0.40151610  0.02233756     0.92900
Mg711      Mg  0.58439787  0.00131491  0.03557040     1.58000
O712        O  0.64826990  0.04912665  0.99563264    -0.80800
O713        O  0.52725936  0.45472746  0.08544403    -0.75000
O714        O  0.89003015  0.33843875  0.98816283    -0.80800
O715        O  0.87804357  0.03512314  0.96112730    -0.82500
O716        O  0.59258754  0.15095388  0.01239546    -0.80900
C717        C  0.48887308  0.42547412  0.07622856     0.87300
O718        O  0.56481305  0.04915754  0.03682622    -0.88000
O719        O  0.54846735  0.47643919  0.96443894    -0.88100
O720        O  0.56834413  0.03321479  0.91555577    -0.75200
Mg721      Mg  0.90673050  0.40071781  0.03095858     1.58000
O722        O  0.94914544  0.33819931  0.96262258    -0.82500
H723        H  0.92730638  0.01438598  0.10814598    -0.06300
O724        O  0.51091230  0.06892775  0.96433312    -0.87800
H725        H  0.51531514  0.08105545  0.88870955    -0.06100
H726        H  0.57383841  0.05676623  0.11296341    -0.06300
C727        C  0.99529587  0.06219113  0.92057804     0.87300
C728        C  0.92640898  0.49513330  0.07560574     0.87900
C729        C  0.55656705  0.05823260  0.07965128     0.87900
H730        H  0.55862832  0.47582958  0.88880162    -0.06200
O731        O  0.95641069  0.42117585  0.91092032    -0.75300
Mg732      Mg  0.57796609  0.08865199  0.96846538     1.58000
H733        H  0.90909930  0.43156994  0.88548645    -0.06300
C734        C  0.89822491  0.07528064  0.97076499     0.92900
O735        O  0.53217013  0.15031615  0.03401010    -0.82500
C736        C  0.57271448  0.17007916  0.02775460     0.93000
O737        O  0.83598021  0.38027734  0.03176039    -0.82500
Mg738      Mg  0.50028807  0.40919783  0.96369415     1.58200
O739        O  0.93628074  0.09466400  0.98917299    -0.80800
O740        O  0.60413599  0.44969725  0.03575751    -0.82500
O741        O  0.52424221  0.45042933  0.46613500    -0.88100
C742        C  0.94080139  0.43997905  0.57918702     0.87900
Mg743      Mg  0.59136549  0.49797650  0.46692978     1.58100
O744        O  0.93392605  0.48862952  0.46449807    -0.87800
O745        O  0.96933116  0.43117139  0.41486326    -0.75200
C746        C  0.60262481  0.18261659  0.52643635     0.93000
O747        O  0.54312118  0.46930505  0.58747996    -0.75000
O748        O  0.62287988  0.16286130  0.53603421    -0.82500
Mg749      Mg  0.99775076  0.41274084  0.53584973     1.58000
C750        C  0.92768279  0.10160307  0.47178671     0.92900
O751        O  0.95067286  0.34942082  0.49424376    -0.80700
H752        H  0.92407705  0.48620596  0.38848221    -0.06100
C753        C  0.50616550  0.07253830  0.57850777     0.87800
O754        O  0.58137568  0.04352079  0.41464343    -0.75300
O755        O  0.95033986  0.43228064  0.53631866    -0.88000
O756        O  0.90804877  0.06298471  0.48901621    -0.80800
C757        C  0.83146642  0.42492626  0.52530840     0.93000
C758        C  0.91260902  0.32987044  0.47583531     0.92900
Mg759      Mg  0.51742942  0.10081802  0.46581209     1.58000
O760        O  0.56454317  0.16355394  0.50814194    -0.80800
O761        O  0.97179415  0.04414065  0.41409625    -0.75000
O762        O  0.85058181  0.40563754  0.50817323    -0.80800
O763        O  0.54852943  0.39241051  0.53638662    -0.82500
O764        O  0.66353124  0.10751990  0.49432350    -0.80900
C765        C  0.94197639  0.00543678  0.42129701     0.87300
O766        O  0.56406658  0.08083142  0.46569392    -0.88000
O767        O  0.98995989  0.06305589  0.53508510    -0.88100
O768        O  0.54451737  0.08138284  0.58673899    -0.75200
Mg769      Mg  0.91325669  0.42103196  0.46624883     1.58000
O770        O  0.85115308  0.46548930  0.53324551    -0.82500
H771        H  0.52720077  0.44103530  0.39070601    -0.06300
O772        O  0.58037713  0.02448186  0.53654229    -0.87800
H773        H  0.59112863  0.02731559  0.61236889    -0.06100
H774        H  0.57293740  0.09244922  0.39007605    -0.06300
C775        C  0.57289908  0.50789342  0.57982624     0.87300
C776        C  0.00780855  0.44040347  0.42288437     0.87900
C777        C  0.57340126  0.07369411  0.42245870     0.87900
H778        H  0.98666497  0.07176584  0.61064257    -0.06200
O779        O  0.93225127  0.46993934  0.58594910    -0.75300
Mg780      Mg  0.60094305  0.09167709  0.53571421     1.58000
H781        H  0.94123003  0.42171145  0.61212402    -0.06300
C782        C  0.58878069  0.41370566  0.52726017     0.92900
O783        O  0.66242215  0.04816120  0.46636670    -0.82500
C784        C  0.68231473  0.08843199  0.47583951     0.93000
O785        O  0.89193483  0.34931437  0.46623469    -0.82500
Mg786      Mg  0.92267001  0.01581029  0.53313508     1.58200
O787        O  0.60735490  0.45190603  0.50922290    -0.80800
O788        O  0.96809961  0.12244846  0.46430957    -0.82500
C789        C  0.66228620  0.32776094  0.91948394    -0.19600
C790        C  0.67154057  0.29880775  0.89247424     0.36600
C791        C  0.67155884  0.29872701  0.83823795    -0.25600
C792        C  0.66596483  0.32895536  0.81028767     0.03000
C793        C  0.66222623  0.36106111  0.83674983     0.27800
C794        C  0.66181586  0.36088600  0.89077354    -0.24700
N795        N  0.68230670  0.27056244  0.91973038    -0.82100
H796        H  0.67689320  0.27558080  0.81755258     0.13600
C797        C  0.66722335  0.32891808  0.75324107     0.03000
N798        N  0.65987629  0.39436365  0.80854826    -0.80700
H799        H  0.66351674  0.38828454  0.91004364     0.18500
C800        C  0.63039293  0.32006257  0.72536620    -0.25500
C801        C  0.63087862  0.32165064  0.67118281     0.36500
C802        C  0.67017842  0.33567991  0.64420355    -0.19600
C803        C  0.70546145  0.33985427  0.67263180    -0.24800
C804        C  0.70485348  0.33787192  0.72668456     0.27900
H805        H  0.60092670  0.31117705  0.74609804     0.13600
N806        N  0.59131258  0.30799827  0.64385524    -0.82100
H807        H  0.73323114  0.34295737  0.65310467     0.18500
N808        N  0.74234043  0.34499255  0.75476189    -0.80700
H809        H  0.56593118  0.29984093  0.66948766     0.34100
H810        H  0.58371589  0.27981039  0.62375859     0.38600
H811        H  0.76740533  0.35103176  0.72947724     0.34100
H812        H  0.75292643  0.37298348  0.77671922     0.30800
H813        H  0.65677709  0.41541239  0.83369960     0.34100
H814        H  0.68908658  0.41261744  0.78915354     0.30800
H815        H  0.71166755  0.28962595  0.93836828     0.38600
H816        H  0.68706450  0.25085044  0.89412723     0.34100
C817        C  0.66509842  0.33368630  0.14383447    -0.19600
C818        C  0.67767385  0.37336463  0.16941309     0.36600
C819        C  0.67706289  0.37457175  0.22353829    -0.25600
C820        C  0.66852314  0.33842366  0.25316185     0.03000
C821        C  0.66151417  0.30061042  0.22808270     0.27800
C822        C  0.66049499  0.29890801  0.17395958    -0.24700
N823        N  0.69198009  0.41261495  0.14072996    -0.82100
H824        H  0.68403002  0.40420392  0.24280504     0.13600
C825        C  0.66886399  0.34107662  0.31038192     0.03000
N826        N  0.65633212  0.26436711  0.25771223    -0.80700
H827        H  0.65841282  0.27099004  0.15571181     0.18500
C828        C  0.63254372  0.31132774  0.33826348    -0.25500
C829        C  0.63199269  0.31195997  0.39248226     0.36500
C830        C  0.66980171  0.34141110  0.41977861    -0.19600
C831        C  0.70346470  0.37463774  0.39118884    -0.24800
C832        C  0.70439338  0.37374016  0.33717709     0.27900
H833        H  0.60421377  0.28788693  0.31747195     0.13600
N834        N  0.59284361  0.28343735  0.41945285    -0.82100
H835        H  0.72884293  0.40234376  0.41048849     0.18500
N836        N  0.74150402  0.40569432  0.30953905    -0.80700
H837        H  0.56868426  0.26327929  0.39371781     0.34100
H838        H  0.58201781  0.30228408  0.43742684     0.38600
H839        H  0.76484808  0.42749997  0.33501298     0.34100
H840        H  0.75517125  0.38972633  0.29064570     0.30800
H841        H  0.65117385  0.23887450  0.23353344     0.34100
H842        H  0.68525837  0.27402280  0.27709078     0.30800
H843        H  0.72089379  0.42023057  0.12268759     0.38600
H844        H  0.69889648  0.43839163  0.16535400     0.34100
C845        C  0.82702982  0.15891758  0.85588957    -0.19600
C846        C  0.86570563  0.18548624  0.82820651     0.36600
C847        C  0.86513137  0.18567997  0.77406916    -0.25600
C848        C  0.82801527  0.15752398  0.74659590     0.03000
C849        C  0.79111377  0.12726499  0.77354189     0.27800
C850        C  0.79137347  0.12767932  0.82773651    -0.24700
N851        N  0.90574846  0.21150272  0.85475092    -0.82100
H852        H  0.89413091  0.20731699  0.75296830     0.13600
C853        C  0.82891242  0.15988988  0.68955080     0.03000
N854        N  0.75356312  0.09628113  0.74578488    -0.80700
H855        H  0.76402676  0.10233148  0.84755436     0.18500
C856        C  0.82410464  0.12491379  0.66040546    -0.25500
C857        C  0.82608362  0.12684266  0.60623440     0.36500
C858        C  0.83607603  0.16596314  0.58055618    -0.19600
C859        C  0.83601953  0.19880860  0.61029255    -0.24800
C860        C  0.83380704  0.19676337  0.66426703     0.27900
H861        H  0.81840079  0.09582279  0.68008777     0.13600
N862        N  0.81692393  0.08879857  0.57759959    -0.82100
H863        H  0.83525279  0.22529638  0.59187756     0.18500
N864        N  0.83578357  0.23174494  0.69359927    -0.80700
H865        H  0.81170820  0.06359858  0.60238048     0.34100
H866        H  0.78814871  0.07833120  0.55765975     0.38600
H867        H  0.83989173  0.25682521  0.66929879     0.34100
H868        H  0.80608504  0.22019651  0.71190209     0.30800
H869        H  0.72917058  0.07606413  0.77131423     0.34100
H870        H  0.74189416  0.11330351  0.72514129     0.30800
H871        H  0.91404767  0.19075188  0.87299292     0.38600
H872        H  0.93054348  0.22985746  0.82872624     0.34100
C873        C  0.84086745  0.17090916  0.35602429    -0.19600
C874        C  0.87611751  0.20241340  0.32700639     0.36600
C875        C  0.87349198  0.20269187  0.27298741    -0.25600
C876        C  0.83858558  0.16932358  0.24664052     0.03000
C877        C  0.80815587  0.13304745  0.27480748     0.27800
C878        C  0.80936580  0.13449876  0.32904084    -0.24700
N879        N  0.91586164  0.23208612  0.35152788    -0.82100
H880        H  0.89955124  0.22848867  0.25139718     0.13600
C881        C  0.83694446  0.17069735  0.18946085     0.03000
N882        N  0.77881316  0.09359903  0.24860917    -0.80700
H883        H  0.78675150  0.10602463  0.35008779     0.18500
C884        C  0.87072581  0.17270508  0.16048606    -0.25500
C885        C  0.86990166  0.17319709  0.10642168     0.36500
C886        C  0.83209091  0.16574090  0.08031543    -0.19600
C887        C  0.80175015  0.17068980  0.10941680    -0.24800
C888        C  0.80411067  0.17379864  0.16357373     0.27900
H889        H  0.89858632  0.17529587  0.17995046     0.13600
N890        N  0.90867774  0.18475008  0.07870379    -0.82100
H891        H  0.77741848  0.17461791  0.08996125     0.18500
N892        N  0.77592559  0.18411969  0.19163396    -0.80700
H893        H  0.92005566  0.16442426  0.09058259     0.34100
H894        H  0.93173960  0.21613844  0.08946737     0.38600
H895        H  0.75521483  0.18763858  0.16646225     0.34100
H896        H  0.75640840  0.15854817  0.21606301     0.30800
H897        H  0.76036740  0.06926077  0.27512965     0.34100
H898        H  0.75715448  0.09843607  0.22701228     0.30800
H899        H  0.93942341  0.22553500  0.33824860     0.38600
H900        H  0.92478577  0.26330453  0.33935784     0.34100
C901        C  0.82792457  0.66157371  0.02126522     0.30200
C902        C  0.82533259  0.66014324  0.91506229     0.30200
C903        C  0.84662766  0.63658444  0.99451831    -0.06000
C904        C  0.78265681  0.63992893  0.99695374    -0.06700
C905        C  0.85075567  0.70528330  0.99414089    -0.06600
C906        C  0.84593902  0.63618121  0.94083720    -0.06000
C907        C  0.78090500  0.64022701  0.94290585    -0.06700
C908        C  0.84938782  0.70520526  0.94049235    -0.06600
C909        C  0.86435907  0.61222894  0.92494679    -0.32000
N910        N  0.87575756  0.59852097  0.96768948     0.14500
C911        C  0.86384647  0.61190013  0.00992667    -0.32000
H912        H  0.86717766  0.60357266  0.04904185     0.16400
C913        C  0.73766075  0.62266201  0.93028519    -0.31000
N914        N  0.71405511  0.60904334  0.97422526     0.13200
C915        C  0.74094432  0.61865794  0.01476931    -0.31000
C916        C  0.87032478  0.74813625  0.92524844    -0.31300
N917        N  0.88462060  0.77305179  0.96815026     0.13700
H918        H  0.87454293  0.76042953  0.88629918     0.16400
C919        C  0.87253611  0.74733339  0.01022816    -0.31300
H920        H  0.87922695  0.75857345  0.04970341     0.16400
H921        H  0.73041957  0.61059850  0.05431989     0.16400
H922        H  0.86957794  0.60580111  0.88566626     0.16400
H923        H  0.72395742  0.62010602  0.89248957     0.16400
C924        C  0.83984676  0.67165654  0.41525413     0.30200
C925        C  0.83997049  0.67023168  0.52146720     0.30200
C926        C  0.86538176  0.65248566  0.44082902    -0.06000
C927        C  0.85831402  0.71622951  0.44237451    -0.06700
C928        C  0.79524173  0.64620297  0.44166980    -0.06600
C929        C  0.86548446  0.65229516  0.49457531    -0.06000
C930        C  0.86012654  0.71532344  0.49628803    -0.06700
C931        C  0.79608468  0.64601607  0.49533046    -0.06600
C932        C  0.89036489  0.63544759  0.51023944    -0.32000
N933        N  0.90419362  0.62386104  0.46812482     0.14500
C934        C  0.88967934  0.63431944  0.42518644    -0.32000
H935        H  0.89567967  0.62852302  0.38596566     0.16800
C936        C  0.88302607  0.75757789  0.51259121    -0.31000
N937        N  0.89105233  0.78383266  0.47163013     0.13200
C938        C  0.87536217  0.75927483  0.42858306    -0.31000
C939        C  0.75450382  0.62532955  0.51274551    -0.31300
N940        N  0.72803314  0.61222691  0.47153631     0.13700
H941        H  0.74410910  0.62026938  0.55257801     0.16400
C942        C  0.75203892  0.62505913  0.42784269    -0.31300
H943        H  0.73878465  0.62054509  0.38943417     0.16400
H944        H  0.87689290  0.77196700  0.39036080     0.16400
H945        H  0.89780001  0.63142776  0.54955646     0.16400
H946        H  0.89398830  0.76909708  0.55125277     0.16400
C947        C  0.66099911  0.82972791  0.08482845     0.30200
C948        C  0.65942164  0.82781182  0.97865936     0.30200
C949        C  0.63903233  0.85251979  0.05833063    -0.06000
C950        C  0.70484150  0.84983910  0.05746207    -0.06700
C951        C  0.63586173  0.78396041  0.05969283    -0.06600
C952        C  0.63784838  0.85087505  0.00443976    -0.06000
C953        C  0.70353854  0.84933051  0.00399578    -0.06700
C954        C  0.63565825  0.78380713  0.00567805    -0.06600
C955        C  0.61374315  0.86882708  0.98857955    -0.32000
N956        N  0.60308687  0.88410091  0.03015625     0.14500
C957        C  0.61735875  0.87374022  0.07319551    -0.32000
H958        H  0.61172922  0.88057567  0.11209141     0.16400
C959        C  0.74497027  0.86921020  0.98629581    -0.31000
N960        N  0.77159688  0.88071364  0.02732697     0.13200
C961        C  0.74779697  0.86897039  0.07126271    -0.31000
C962        C  0.61070269  0.74191983  0.98957792    -0.31300
N963        N  0.59634098  0.71610077  0.03136614     0.13700
H964        H  0.60296960  0.73067656  0.95020847     0.16400
C965        C  0.60992765  0.74091529  0.07445544    -0.31300
H966        H  0.60068796  0.72813864  0.11300249     0.16400
H967        H  0.76071255  0.87429835  0.10995643     0.16400
H968        H  0.60387910  0.87060954  0.94973961     0.16400
H969        H  0.75514808  0.87426076  0.94638333     0.16400
C970        C  0.67269765  0.84067633  0.47895286     0.30200
C971        C  0.67297064  0.84007803  0.58516712     0.30200
C972        C  0.64906600  0.86068643  0.50566141    -0.06000
C973        C  0.65366106  0.79637361  0.50468840    -0.06700
C974        C  0.71740959  0.86442036  0.50476314    -0.06600
C975        C  0.64890722  0.86076048  0.55935450    -0.06000
C976        C  0.65348389  0.79579766  0.55834846    -0.06700
C977        C  0.71801431  0.86600310  0.55879481    -0.06600
C978        C  0.62666072  0.88136820  0.57412359    -0.32000
N979        N  0.61332309  0.89257224  0.53088223     0.14500
C980        C  0.62739156  0.88076351  0.48912102    -0.32000
H981        H  0.62191770  0.88620859  0.44949504     0.16400
C982        C  0.63542820  0.75305788  0.57333670    -0.31000
N983        N  0.62482394  0.72851667  0.53010202     0.13200
C984        C  0.63659281  0.75453347  0.48833052    -0.31000
C985        C  0.76114861  0.89131883  0.57271854    -0.31300
N986        N  0.78560137  0.90074512  0.52958664     0.13700
H987        H  0.77421657  0.90220102  0.61084788     0.16400
C988        C  0.75947785  0.88353862  0.48849293    -0.31300
H989        H  0.77098829  0.88463939  0.44972267     0.16400
H990        H  0.63285389  0.74343141  0.44887683     0.16400
H991        H  0.62103234  0.88823766  0.61301210     0.16400
H992        H  0.62978391  0.74074623  0.61237355     0.16400
O993        O  0.93592740  0.51191151  0.03245174    -0.88100
C994        C  0.92685380  0.93003283  0.91824839     0.87900
Mg995      Mg  0.98267735  0.57898141  0.03268371     1.58100
O996        O  0.97329176  0.91991828  0.03260236    -0.87800
O997        O  0.91769528  0.95662329  0.08318891    -0.75200
C998        C  0.66823934  0.58790533  0.97900769     0.93000
O999        O  0.95692075  0.53253677  0.91174383    -0.75000
O1000       O  0.64929629  0.60928228  0.97063563    -0.82500
Mg1001     Mg  0.89959141  0.98597389  0.96199443     1.58000
C1002       C  0.58259605  0.90935664  0.02606713     0.92900
O1003       O  0.83684638  0.93934805  0.00320710    -0.80700
H1004       H  0.96876460  0.90602617  0.10771735    -0.06100
C1005       C  0.55892659  0.49429707  0.92188167     0.87800
O1006       O  0.52737607  0.56786277  0.08580619    -0.75300
O1007       O  0.91914553  0.93891022  0.96147948    -0.88000
O1008       O  0.54492179  0.89148626  0.00687529    -0.80800
C1009       C  0.90885103  0.81894391  0.97110395     0.93000
C1010       C  0.81717502  0.90151611  0.02233755     0.92900
Mg1011     Mg  0.58439783  0.50131490  0.03557041     1.58000
O1012       O  0.64826994  0.54912659  0.99563261    -0.80800
O1013       O  0.52725945  0.95472747  0.08544402    -0.75000
O1014       O  0.89003020  0.83843877  0.98816288    -0.80800
O1015       O  0.87804358  0.53512314  0.96112730    -0.82500
O1016       O  0.59258753  0.65095394  0.01239539    -0.80900
C1017       C  0.48887315  0.92547421  0.07622856     0.87300
O1018       O  0.56481312  0.54915762  0.03682621    -0.88000
O1019       O  0.54846744  0.97643915  0.96443891    -0.88100
O1020       O  0.56834417  0.53321484  0.91555576    -0.75200
Mg1021     Mg  0.90673053  0.90071787  0.03095861     1.58000
O1022       O  0.94914544  0.83819929  0.96262254    -0.82500
H1023       H  0.92730616  0.51438579  0.10814596    -0.06300
O1024       O  0.51091231  0.56892776  0.96433311    -0.87800
H1025       H  0.51531515  0.58105549  0.88870953    -0.06100
H1026       H  0.57383858  0.55676640  0.11296338    -0.06300
C1027       C  0.99529589  0.56219121  0.92057804     0.87300
C1028       C  0.92640905  0.99513343  0.07560575     0.87900
C1029       C  0.55656717  0.55823271  0.07965128     0.87900
H1030       H  0.55862839  0.97582955  0.88880160    -0.06200
O1031       O  0.95641074  0.92117594  0.91092027    -0.75300
Mg1032     Mg  0.57796607  0.58865198  0.96846536     1.58000
H1033       H  0.90909932  0.93157007  0.88548650    -0.06300
C1034       C  0.89822485  0.57528061  0.97076501     0.92900
O1035       O  0.53217010  0.65031613  0.03401013    -0.82500
C1036       C  0.57271446  0.67007919  0.02775457     0.93000
O1037       O  0.83598021  0.88027735  0.03176044    -0.82500
Mg1038     Mg  0.50028810  0.90919786  0.96369414     1.58200
O1039       O  0.93628069  0.59466402  0.98917305    -0.80800
O1040       O  0.60413611  0.94969735  0.03575752    -0.82500
O1041       O  0.52424224  0.95042923  0.46613494    -0.88100
C1042       C  0.94080150  0.93997915  0.57918702     0.87900
Mg1043     Mg  0.59136553  0.99797653  0.46692978     1.58100
O1044       O  0.93392592  0.98862951  0.46449807    -0.87800
O1045       O  0.96933120  0.93117147  0.41486324    -0.75200
C1046       C  0.60262489  0.68261663  0.52643636     0.93000
O1047       O  0.54312123  0.96930509  0.58747994    -0.75000
O1048       O  0.62287990  0.66286127  0.53603424    -0.82500
Mg1049     Mg  0.99775076  0.91274084  0.53584974     1.58000
C1050       C  0.92768283  0.60160310  0.47178673     0.92900
O1051       O  0.95067283  0.84942078  0.49424376    -0.80700
H1052       H  0.92407702  0.98620597  0.38848218    -0.06100
C1053       C  0.50616548  0.57253824  0.57850779     0.87800
O1054       O  0.58137566  0.54352072  0.41464347    -0.75300
O1055       O  0.95033995  0.93228076  0.53631865    -0.88000
O1056       O  0.90804881  0.56298471  0.48901615    -0.80800
C1057       C  0.83146642  0.92492626  0.52530839     0.93000
C1058       C  0.91260901  0.82987040  0.47583533     0.92900
Mg1059     Mg  0.51742942  0.60081803  0.46581212     1.58000
O1060       O  0.56454325  0.66355401  0.50814192    -0.80800
O1061       O  0.97179409  0.54414071  0.41409627    -0.75000
O1062       O  0.85058186  0.90563756  0.50817331    -0.80800
O1063       O  0.54852938  0.89241046  0.53638663    -0.82500
O1064       O  0.66353122  0.60751988  0.49432348    -0.80900
C1065       C  0.94197644  0.50543679  0.42129701     0.87300
O1066       O  0.56406664  0.58083146  0.46569388    -0.88000
O1067       O  0.98995987  0.56305587  0.53508512    -0.88100
O1068       O  0.54451733  0.58138272  0.58673895    -0.75200
Mg1069     Mg  0.91325669  0.92103198  0.46624886     1.58000
O1070       O  0.85115304  0.96548930  0.53324546    -0.82500
H1071       H  0.52720078  0.94103520  0.39070597    -0.06300
O1072       O  0.58037715  0.52448182  0.53654229    -0.87800
H1073       H  0.59112859  0.52731548  0.61236893    -0.06100
H1074       H  0.57293766  0.59244926  0.39007599    -0.06300
C1075       C  0.57289908  0.00789348  0.57982624     0.87300
C1076       C  0.00780854  0.94040340  0.42288433     0.87900
C1077       C  0.57340136  0.57369412  0.42245868     0.87900
H1078       H  0.98666498  0.57176586  0.61064258    -0.06200
O1079       O  0.93225136  0.96993941  0.58594912    -0.75300
Mg1080     Mg  0.60094304  0.59167705  0.53571419     1.58000
H1081       H  0.94123018  0.92171155  0.61212402    -0.06300
C1082       C  0.58878065  0.91370560  0.52726014     0.92900
O1083       O  0.66242210  0.54816114  0.46636673    -0.82500
C1084       C  0.68231469  0.58843195  0.47583950     0.93000
O1085       O  0.89193480  0.84931430  0.46623474    -0.82500
Mg1086     Mg  0.92267003  0.51581026  0.53313506     1.58200
O1087       O  0.60735489  0.95190596  0.50922288    -0.80800
O1088       O  0.96809967  0.62244849  0.46430961    -0.82500
C1089       C  0.66228623  0.82776092  0.91948403    -0.19600
C1090       C  0.67154064  0.79880777  0.89247432     0.36600
C1091       C  0.67155888  0.79872704  0.83823802    -0.25600
C1092       C  0.66596491  0.82895541  0.81028777     0.03000
C1093       C  0.66222636  0.86106112  0.83674994     0.27800
C1094       C  0.66181598  0.86088603  0.89077366    -0.24700
N1095       N  0.68230685  0.77056250  0.91973042    -0.82100
H1096       H  0.67689319  0.77558082  0.81755260     0.13600
C1097       C  0.66722340  0.82891809  0.75324117     0.03000
N1098       N  0.65987634  0.89436362  0.80854838    -0.80700
H1099       H  0.66351679  0.88828450  0.91004383     0.18500
C1100       C  0.63039292  0.82006242  0.72536632    -0.25500
C1101       C  0.63087857  0.82165051  0.67118293     0.36500
C1102       C  0.67017840  0.83567990  0.64420363    -0.19600
C1103       C  0.70546138  0.83985411  0.67263183    -0.24800
C1104       C  0.70485349  0.83787184  0.72668459     0.27900
H1105       H  0.60092666  0.81117680  0.74609818     0.13600
N1106       N  0.59131255  0.80799812  0.64385538    -0.82100
H1107       H  0.73323104  0.84295715  0.65310466     0.18500
N1108       N  0.74234047  0.84499262  0.75476191    -0.80700
H1109       H  0.56593103  0.79984056  0.66948797     0.34100
H1110       H  0.58371590  0.77981032  0.62375866     0.38600
H1111       H  0.76740554  0.85103191  0.72947707     0.34100
H1112       H  0.75292642  0.87298350  0.77671903     0.30800
H1113       H  0.65677710  0.91541228  0.83369962     0.34100
H1114       H  0.68908655  0.91261735  0.78915356     0.30800
H1115       H  0.71166770  0.78962606  0.93836826     0.38600
H1116       H  0.68706467  0.75085051  0.89412725     0.34100
C1117       C  0.66509845  0.83368634  0.14383453    -0.19600
C1118       C  0.67767396  0.87336467  0.16941310     0.36600
C1119       C  0.67706300  0.87457186  0.22353830    -0.25600
C1120       C  0.66852317  0.83842375  0.25316187     0.03000
C1121       C  0.66151422  0.80061052  0.22808279     0.27800
C1122       C  0.66049495  0.79890802  0.17395965    -0.24700
N1123       N  0.69198020  0.91261499  0.14072994    -0.82100
H1124       H  0.68403020  0.90420406  0.24280500     0.13600
C1125       C  0.66886404  0.84107667  0.31038193     0.03000
N1126       N  0.65633226  0.76436725  0.25771234    -0.80700
H1127       H  0.65841269  0.77099000  0.15571191     0.18500
C1128       C  0.63254377  0.81132776  0.33826347    -0.25500
C1129       C  0.63199278  0.81195996  0.39248225     0.36500
C1130       C  0.66980179  0.84141114  0.41977862    -0.19600
C1131       C  0.70346477  0.87463777  0.39118884    -0.24800
C1132       C  0.70439349  0.87374018  0.33717711     0.27900
H1133       H  0.60421378  0.78788699  0.31747192     0.13600
N1134       N  0.59284371  0.78343740  0.41945287    -0.82100
H1135       H  0.72884298  0.90234381  0.41048849     0.18500
N1136       N  0.74150410  0.90569434  0.30953901    -0.80700
H1137       H  0.56868437  0.76327931  0.39371786     0.34100
H1138       H  0.58201796  0.80228420  0.43742672     0.38600
H1139       H  0.76484825  0.92750019  0.33501314     0.34100
H1140       H  0.75517138  0.88972654  0.29064583     0.30800
H1141       H  0.65117399  0.73887477  0.23353386     0.34100
H1142       H  0.68525875  0.77402312  0.27709101     0.30800
H1143       H  0.72089397  0.92023057  0.12268747     0.38600
H1144       H  0.69889657  0.93839154  0.16535375     0.34100
C1145       C  0.82702984  0.65891753  0.85588955    -0.19600
C1146       C  0.86570567  0.68548612  0.82820654     0.36600
C1147       C  0.86513144  0.68567991  0.77406918    -0.25600
C1148       C  0.82801534  0.65752399  0.74659590     0.03000
C1149       C  0.79111387  0.62726494  0.77354186     0.27800
C1150       C  0.79137354  0.62767925  0.82773649    -0.24700
N1151       N  0.90574848  0.71150259  0.85475092    -0.82100
H1152       H  0.89413098  0.70731694  0.75296835     0.13600
C1153       C  0.82891253  0.65988996  0.68955080     0.03000
N1154       N  0.75356318  0.59628116  0.74578484    -0.80700
H1155       H  0.76402682  0.60233141  0.84755431     0.18500
C1156       C  0.82410479  0.62491389  0.66040547    -0.25500
C1157       C  0.82608372  0.62684269  0.60623442     0.36500
C1158       C  0.83607609  0.66596318  0.58055616    -0.19600
C1159       C  0.83601956  0.69880865  0.61029251    -0.24800
C1160       C  0.83380711  0.69676346  0.66426701     0.27900
H1161       H  0.81840093  0.59582288  0.68008780     0.13600
N1162       N  0.81692400  0.58879858  0.57759963    -0.82100
H1163       H  0.83525266  0.72529636  0.59187750     0.18500
N1164       N  0.83578348  0.73174498  0.69359923    -0.80700
H1165       H  0.81170819  0.56359846  0.60238069     0.34100
H1166       H  0.78814879  0.57833117  0.55765982     0.38600
H1167       H  0.83989156  0.75682518  0.66929870     0.34100
H1168       H  0.80608489  0.72019645  0.71190197     0.30800
H1169       H  0.72917062  0.57606416  0.77131414     0.34100
H1170       H  0.74189430  0.61330365  0.72514135     0.30800
H1171       H  0.91404767  0.69075160  0.87299305     0.38600
H1172       H  0.93054346  0.72985723  0.82872635     0.34100
C1173       C  0.84086745  0.67090925  0.35602428    -0.19600
C1174       C  0.87611753  0.70241343  0.32700642     0.36600
C1175       C  0.87349205  0.70269192  0.27298744    -0.25600
C1176       C  0.83858565  0.66932365  0.24664052     0.03000
C1177       C  0.80815594  0.63304753  0.27480745     0.27800
C1178       C  0.80936586  0.63449883  0.32904083    -0.24700
N1179       N  0.91586172  0.73208606  0.35152792    -0.82100
H1180       H  0.89955134  0.72848872  0.25139728     0.13600
C1181       C  0.83694452  0.67069744  0.18946085     0.03000
N1182       N  0.77881315  0.59359916  0.24860918    -0.80700
H1183       H  0.78675157  0.60602470  0.35008778     0.18500
C1184       C  0.87072581  0.67270499  0.16048606    -0.25500
C1185       C  0.86990173  0.67319715  0.10642167     0.36500
C1186       C  0.83209097  0.66574099  0.08031542    -0.19600
C1187       C  0.80175022  0.67068993  0.10941678    -0.24800
C1188       C  0.80411071  0.67379878  0.16357370     0.27900
H1189       H  0.89858623  0.67529560  0.17995047     0.13600
N1190       N  0.90867783  0.68475009  0.07870380    -0.82100
H1191       H  0.77741854  0.67461804  0.08996119     0.18500
N1192       N  0.77592561  0.68411980  0.19163394    -0.80700
H1193       H  0.92005564  0.66442443  0.09058237     0.34100
H1194       H  0.93173994  0.71613873  0.08946761     0.38600
H1195       H  0.75521472  0.68763864  0.16646208     0.34100
H1196       H  0.75640840  0.65854836  0.21606303     0.30800
H1197       H  0.76036738  0.56926096  0.27512957     0.34100
H1198       H  0.75715432  0.59843631  0.22701227     0.30800
H1199       H  0.93942349  0.72553477  0.33824853     0.38600
H1200       H  0.92478592  0.76330430  0.33935806     0.34100
loop_ 
_geom_bond_atom_site_label_1 
_geom_bond_atom_site_label_2 
_geom_bond_distance 
_geom_bond_site_symmetry_2 
_ccdc_geom_bond_type 
C1            C3   1.531   1_554  S
C1            C5   1.526   1_554  S
C1            C4   1.543   1_554  S
C1          C286   1.540       .  S
C2            C6   1.541       .  S
C2            C8   1.545       .  S
C2            C7   1.561       .  S
C2          C245   1.538       .  S
C3           C11   1.370   1_556  A
C3            C6   1.393       .  A
C4           C15   1.377   1_556  A
C4            C7   1.404       .  A
C5           C19   1.368   1_556  A
C5            C8   1.393       .  A
C6            C9   1.386       .  A
C7           C13   1.392       .  A
C8           C16   1.387       .  A
C9           N10   1.357       .  A
C9           H22   1.082       .  S
N10          C11   1.350   1_556  A
N10         C134   1.425       .  S
C11          H12   1.081       .  S
C13          N14   1.357       .  A
C13          H23   1.081       .  S
N14          C15   1.351   1_556  A
N14          C98   1.432       .  S
C15          H21   1.082       .  S
C16          N17   1.357       .  A
C16          H18   1.082       .  S
N17          C19   1.351   1_556  A
N17         C109   1.424       .  S
C19          H20   1.083       .  S
C24          C26   1.546       .  S
C24          C28   1.550       .  S
C24          C27   1.556       .  S
C24         C273   1.538       .  S
C25          C29   1.529       .  S
C25          C31   1.526       .  S
C25          C30   1.544       .  S
C25         C258   1.540       .  S
C26          C34   1.388       .  A
C26          C29   1.395       .  A
C27          C38   1.390       .  A
C27          C30   1.402       .  A
C28          C42   1.391       .  A
C28          C31   1.393       .  A
C29          C32   1.369       .  A
C30          C36   1.377       .  A
C31          C39   1.369       .  A
C32          N33   1.350       .  A
C32          H45   1.082       .  S
N33          C34   1.361       .  A
N33         C150   1.428       .  S
C34          H35   1.082       .  S
C36          N37   1.351       .  A
C36          H46   1.081       .  S
N37          C38   1.357       .  A
N37         C158   1.431       .  S
C38          H44   1.081       .  S
C39          N40   1.350       .  A
C39          H41   1.083       .  S
N40          C42   1.357       .  A
N40         C184   1.426       .  S
C42          H43   1.081       .  S
C47          C49   1.554       .  S
C47          C51   1.563       .  S
C47          C50   1.539       .  S
C47         C217   1.538       .  S
C48          C52   1.543   1_556  S
C48          C54   1.534   1_556  S
C48          C53   1.521   1_556  S
C48         C189   1.539       .  S
C49          C57   1.390       .  A
C49          C52   1.399       .  A
C50          C61   1.386       .  A
C50          C53   1.388       .  A
C51          C65   1.396       .  A
C51          C54   1.402       .  A
C52          C55   1.377   1_554  A
C53          C59   1.368   1_554  A
C54          C62   1.371   1_554  A
C55          N56   1.350   1_556  A
C55          H68   1.081       .  S
N56          C57   1.357       .  A
N56         C102   1.430       .  S
C57          H58   1.082       .  S
C59          N60   1.351   1_556  A
C59          H69   1.083       .  S
N60          C61   1.359       .  A
N60         C110   1.425       .  S
C61          H67   1.082       .  S
C62          N63   1.348   1_556  A
C62          H64   1.082       .  S
N63          C65   1.358       .  A
N63         C136   1.429       .  S
C65          H66   1.080       .  S
C70          C72   1.527       .  S
C70          C74   1.544       .  S
C70          C73   1.530       .  S
C70         C230   1.540       .  S
C71          C75   1.547       .  S
C71          C77   1.563       .  S
C71          C76   1.542       .  S
C71         C202   1.538       .  S
C72          C80   1.369       .  A
C72          C75   1.393       .  A
C73          C84   1.371       .  A
C73          C76   1.393       .  A
C74          C88   1.376       .  A
C74          C77   1.403       .  A
C75          C78   1.389       .  A
C76          C82   1.385       .  A
C77          C85   1.395       .  A
C78          N79   1.358       .  A
C78          H91   1.082       .  S
N79          C80   1.351       .  A
N79         C182   1.427       .  S
C80          H81   1.083       .  S
C82          N83   1.357       .  A
C82          H92   1.082       .  S
N83          C84   1.351       .  A
N83         C146   1.425       .  S
C84          H90   1.082       .  S
C85          N86   1.357       .  A
C85          H87   1.081       .  S
N86          C88   1.348       .  A
N86         C157   1.431       .  S
C88          H89   1.081       .  S
O93         Mg95   2.130       .  S
O93        Mg401   2.167   1_544  S
O93         C428   1.235   1_545  S
C94         H133   1.081       .  S
C94         O107   1.235       .  S
C94         O131   1.268       .  A
Mg95        O724   2.163   1_554  S
Mg95        O139   2.307   1_554  S
Mg95        O735   2.264       .  S
Mg95        O706   2.300       .  S
O96        Mg121   2.133       .  S
O96        Mg738   2.160   1_554  S
O96         C717   1.234       .  S
O97         C128   1.268       .  A
O97        Mg121   2.284       .  S
C98         O100   1.275       .  A
C98         O112   1.276       .  A
O99         C127   1.269       .  A
O99        Mg401   2.296   1_545  S
O100       Mg132   2.286       .  S
Mg101       O107   2.130       .  S
Mg101       O393   2.167   1_556  S
Mg101       O103   2.288   1_556  S
Mg101       O399   2.296       .  S
Mg101       O415   2.254       .  S
C102        O140   1.276       .  A
C102        O108   1.274       .  A
O103        C110   1.273       .  A
H104        C717   1.081       .  S
C105        H430   1.081       .  S
C105        O419   1.236       .  S
C105        O120   1.270   1_565  A
O106        C129   1.270       .  A
O106       Mg695   2.300   1_455  S
O107       Mg121   2.169   1_556  S
O108       Mg138   2.294   1_554  S
C109        O122   1.272       .  A
C109        O114   1.273       .  A
C110        O137   1.271       .  A
Mg111       O118   2.158       .  S
Mg111       O419   2.171   1_544  S
Mg111       O112   2.308   1_554  S
Mg111       O413   2.287   1_545  S
Mg111       O440   2.292   1_545  S
O113        C117   1.267   1_455  A
O113       Mg411   2.287       .  S
O114       Mg121   2.287   1_556  S
O115        C134   1.269       .  A
O115       Mg401   2.254   1_545  S
O116        C136   1.278       .  A
O116       Mg132   2.320   1_554  S
C117        H704   1.081       .  S
C117        O696   1.234       .  S
O118       Mg132   2.167   1_554  S
O118        C129   1.236       .  S
O119       Mg138   2.147       .  S
O119       Mg411   2.171   1_556  S
O119        C405   1.236       .  S
O120       Mg132   2.295       .  S
Mg121       O137   2.267       .  S
O122       Mg738   2.269       .  S
H123        C428   1.081   1_545  S
O124       Mg132   2.148       .  S
O124       Mg695   2.163   1_456  S
O124        C727   1.236   1_455  S
H125        C727   1.081   1_455  S
H126        C129   1.081       .  S
C127        H725   1.081       .  S
C127        O724   1.236       .  S
C128        H423   1.081       .  S
C128        O393   1.235       .  S
H130        C405   1.081       .  S
O131       Mg738   2.288       .  S
C134        O139   1.276       .  A
O135        C136   1.271       .  A
O135       Mg695   2.264   1_455  S
Mg138       O696   2.160   1_456  S
Mg138       O722   2.269   1_455  S
Mg138       O731   2.288   1_455  S
O140       Mg411   2.292       .  S
O141       Mg143   2.143       .  S
O141       Mg749   2.170   1_455  S
O141        C776   1.235       .  S
C142        H181   1.081       .  S
C142        O155   1.236       .  S
C142        O179   1.270       .  A
Mg143       O472   2.169       .  S
Mg143       O187   2.284       .  S
Mg143       O483   2.268       .  S
Mg143       O454   2.285       .  S
O144       Mg169   2.148       .  S
O144       Mg486   2.165       .  S
O144        C465   1.236       .  S
O145        C176   1.268       .  A
O145       Mg169   2.290       .  S
C146        O148   1.270       .  A
C146        O160   1.276       .  A
O147        C175   1.268       .  A
O147       Mg749   2.290   1_455  S
O148       Mg180   2.260       .  S
Mg149       O155   2.146       .  S
Mg149       O741   2.170       .  S
Mg149       O151   2.306       .  S
Mg149       O747   2.290       .  S
Mg149       O763   2.282       .  S
C150        O188   1.271       .  A
C150        O156   1.277       .  A
O151        C158   1.276       .  A
H152        C465   1.081       .  S
C153        H778   1.081   1_455  S
C153        O767   1.235   1_455  S
C153        O168   1.269       .  A
O154        C177   1.267       .  A
O154       Mg443   2.285   1_545  S
O155       Mg169   2.170       .  S
O156       Mg186   2.311       .  S
C157        O170   1.274       .  A
C157        O162   1.276       .  A
C158        O185   1.274       .  A
Mg159       O166   2.131       .  S
Mg159       O767   2.166   1_455  S
Mg159       O160   2.303       .  S
Mg159       O761   2.296   1_455  S
Mg159       O788   2.267   1_455  S
O161        C165   1.270       .  A
O161       Mg759   2.296       .  S
O162       Mg169   2.307       .  S
O163        C182   1.274       .  A
O163       Mg749   2.282   1_455  S
O164        C184   1.273       .  A
O164       Mg180   2.293       .  S
C165        H452   1.081   1_545  S
C165        O444   1.236   1_545  S
O166       Mg180   2.167       .  S
O166        C177   1.235       .  S
O167       Mg186   2.146       .  S
O167       Mg759   2.166       .  S
O167        C753   1.235       .  S
O168       Mg180   2.293       .  S
Mg169       O185   2.283       .  S
O170       Mg486   2.281       .  S
H171        C776   1.081       .  S
O172       Mg180   2.134       .  S
O172       Mg443   2.169   1_545  S
O172        C475   1.235       .  S
H173        C475   1.081       .  S
H174        C177   1.081       .  S
C175        H473   1.081       .  S
C175        O472   1.235       .  S
C176        H771   1.081       .  S
C176        O741   1.235       .  S
H178        C753   1.081       .  S
O179       Mg486   2.295       .  S
C182        O187   1.272       .  A
O183        C184   1.272       .  A
O183       Mg443   2.268   1_545  S
Mg186       O444   2.165   1_545  S
Mg186       O470   2.281   1_545  S
Mg186       O479   2.295   1_545  S
O188       Mg759   2.267       .  S
C189        C190   1.424       .  A
C189        C194   1.409       .  A
C190        C191   1.407       .  A
C190        N195   1.438       .  S
C191        C192   1.400       .  A
C191        H196   1.084       .  S
C192        C193   1.404       .  A
C192        C197   1.481       .  S
C193        C194   1.402       .  A
C193        N198   1.438       .  S
C194        H199   1.076       .  S
N195        H215   1.044       .  S
N195        H216   1.045       .  S
C197        C200   1.399       .  A
C197        C204   1.405       .  A
N198        H213   1.046       .  S
N198        H214   1.046       .  S
C200        C201   1.407       .  A
C200        H205   1.084       .  S
C201        C202   1.423       .  A
C201        N206   1.438       .  S
C202        C203   1.410       .  A
C203        C204   1.404       .  A
C203        H207   1.075       .  S
C204        N208   1.438       .  S
N206        H209   1.045       .  S
N206        H210   1.044       .  S
N208        H211   1.046       .  S
N208        H212   1.045       .  S
C217        C218   1.422       .  A
C217        C222   1.408       .  A
C218        C219   1.406       .  A
C218        N223   1.438       .  S
C219        C220   1.401       .  A
C219        H224   1.083       .  S
C220        C221   1.408       .  A
C220        C225   1.488       .  S
C221        C222   1.406       .  A
C221        N226   1.438       .  S
C222        H227   1.075       .  S
N223        H243   1.044       .  S
N223        H244   1.046       .  S
C225        C228   1.402       .  A
C225        C232   1.408       .  A
N226        H241   1.046       .  S
N226        H242   1.046       .  S
C228        C229   1.407       .  A
C228        H233   1.084       .  S
C229        C230   1.422       .  A
C229        N234   1.438       .  S
C230        C231   1.408       .  A
C231        C232   1.403       .  A
C231        H235   1.076       .  S
C232        N236   1.438       .  S
N234        H237   1.045       .  S
N234        H238   1.045       .  S
N236        H239   1.045       .  S
N236        H240   1.046       .  S
C245        C246   1.423       .  A
C245        C250   1.410       .  A
C246        C247   1.405       .  A
C246        N251   1.438       .  S
C247        C248   1.398       .  A
C247        H252   1.084       .  S
C248        C249   1.406       .  A
C248        C253   1.482       .  S
C249        C250   1.406       .  A
C249        N254   1.438       .  S
C250        H255   1.076       .  S
N251        H271   1.044       .  S
N251        H272   1.046       .  S
C253        C256   1.399       .  A
C253        C260   1.405       .  A
N254        H269   1.046       .  S
N254        H270   1.045       .  S
C256        C257   1.407       .  A
C256        H261   1.084       .  S
C257        C258   1.425       .  A
C257        N262   1.439       .  S
C258        C259   1.409       .  A
C259        C260   1.403       .  A
C259        H263   1.075       .  S
C260        N264   1.438       .  S
N262        H265   1.046       .  S
N262        H266   1.044       .  S
N264        H267   1.046       .  S
N264        H268   1.046       .  S
C273        C274   1.417       .  A
C273        C278   1.411       .  A
C274        C275   1.405       .  A
C274        N279   1.432       .  S
C275        C276   1.401       .  A
C275        H280   1.084       .  S
C276        C277   1.411       .  A
C276        C281   1.487       .  S
C277        C278   1.408       .  A
C277        N282   1.440       .  S
C278        H283   1.080       .  S
N279        H299   1.046       .  S
N279        H300   1.045       .  S
C281        C284   1.400       .  A
C281        C288   1.411       .  A
N282        H297   1.045       .  S
N282        H298   1.043       .  S
C284        C285   1.404       .  A
C284        H289   1.084       .  S
C285        C286   1.420       .  A
C285        N290   1.433       .  S
C286        C287   1.410       .  A
C287        C288   1.409       .  A
C287        H291   1.079       .  S
C288        N292   1.440       .  S
N290        H293   1.046       .  S
N290        H294   1.045       .  S
N292        H295   1.045       .  S
N292        H296   1.042       .  S
C301        C303   1.531   1_554  S
C301        C305   1.526   1_554  S
C301        C304   1.543   1_554  S
C301        C586   1.540       .  S
C302        C306   1.541       .  S
C302        C308   1.545       .  S
C302        C307   1.561       .  S
C302        C545   1.538       .  S
C303        C311   1.370   1_556  A
C303        C306   1.393       .  A
C304        C315   1.377   1_556  A
C304        C307   1.404       .  A
C305        C319   1.368   1_556  A
C305        C308   1.393       .  A
C306        C309   1.386       .  A
C307        C313   1.392       .  A
C308        C316   1.387       .  A
C309        N310   1.357       .  A
C309        H322   1.082       .  S
N310        C311   1.350   1_556  A
N310        C434   1.425       .  S
C311        H312   1.081       .  S
C313        N314   1.357       .  A
C313        H323   1.081       .  S
N314        C315   1.351   1_556  A
N314        C398   1.432       .  S
C315        H321   1.082       .  S
C316        N317   1.357       .  A
C316        H318   1.082       .  S
N317        C319   1.351   1_556  A
N317        C409   1.424       .  S
C319        H320   1.083       .  S
C324        C326   1.546       .  S
C324        C328   1.550       .  S
C324        C327   1.556       .  S
C324        C573   1.538       .  S
C325        C329   1.529       .  S
C325        C331   1.526       .  S
C325        C330   1.544       .  S
C325        C558   1.540       .  S
C326        C334   1.388       .  A
C326        C329   1.395       .  A
C327        C338   1.390       .  A
C327        C330   1.402       .  A
C328        C342   1.391       .  A
C328        C331   1.393       .  A
C329        C332   1.369       .  A
C330        C336   1.377       .  A
C331        C339   1.369       .  A
C332        N333   1.350       .  A
C332        H345   1.082       .  S
N333        C334   1.361       .  A
N333        C450   1.428       .  S
C334        H335   1.082       .  S
C336        N337   1.351       .  A
C336        H346   1.081       .  S
N337        C338   1.357       .  A
N337        C458   1.431       .  S
C338        H344   1.081       .  S
C339        N340   1.350       .  A
C339        H341   1.083       .  S
N340        C342   1.357       .  A
N340        C484   1.426       .  S
C342        H343   1.081       .  S
C347        C349   1.554       .  S
C347        C351   1.563       .  S
C347        C350   1.539       .  S
C347        C517   1.538       .  S
C348        C352   1.543   1_556  S
C348        C354   1.534   1_556  S
C348        C353   1.521   1_556  S
C348        C489   1.539       .  S
C349        C357   1.390       .  A
C349        C352   1.399       .  A
C350        C361   1.386       .  A
C350        C353   1.388       .  A
C351        C365   1.396       .  A
C351        C354   1.402       .  A
C352        C355   1.377   1_554  A
C353        C359   1.368   1_554  A
C354        C362   1.371   1_554  A
C355        N356   1.350   1_556  A
C355        H368   1.081       .  S
N356        C357   1.357       .  A
N356        C402   1.430       .  S
C357        H358   1.082       .  S
C359        N360   1.351   1_556  A
C359        H369   1.083       .  S
N360        C361   1.359       .  A
N360        C410   1.425       .  S
C361        H367   1.082       .  S
C362        N363   1.348   1_556  A
C362        H364   1.082       .  S
N363        C365   1.358       .  A
N363        C436   1.429       .  S
C365        H366   1.080       .  S
C370        C372   1.527       .  S
C370        C374   1.544       .  S
C370        C373   1.530       .  S
C370        C530   1.540       .  S
C371        C375   1.547       .  S
C371        C377   1.563       .  S
C371        C376   1.542       .  S
C371        C502   1.538       .  S
C372        C380   1.369       .  A
C372        C375   1.393       .  A
C373        C384   1.371       .  A
C373        C376   1.393       .  A
C374        C388   1.376       .  A
C374        C377   1.403       .  A
C375        C378   1.389       .  A
C376        C382   1.385       .  A
C377        C385   1.395       .  A
C378        N379   1.358       .  A
C378        H391   1.082       .  S
N379        C380   1.351       .  A
N379        C482   1.427       .  S
C380        H381   1.083       .  S
C382        N383   1.357       .  A
C382        H392   1.082       .  S
N383        C384   1.351       .  A
N383        C446   1.425       .  S
C384        H390   1.082       .  S
C385        N386   1.357       .  A
C385        H387   1.081       .  S
N386        C388   1.348       .  A
N386        C457   1.431       .  S
C388        H389   1.081       .  S
O393       Mg395   2.130       .  S
C394        H433   1.081       .  S
C394        O407   1.235       .  S
C394        O431   1.268       .  A
Mg395      O1024   2.163   1_554  S
Mg395       O439   2.307   1_554  S
Mg395      O1035   2.264       .  S
Mg395      O1006   2.300       .  S
O396      Mg1038   2.160   1_554  S
O396       Mg421   2.133       .  S
O396       C1017   1.234       .  S
O397        C428   1.268       .  A
O397       Mg421   2.284       .  S
C398        O400   1.275       .  A
C398        O412   1.276       .  A
O399        C427   1.269       .  A
O400       Mg432   2.286       .  S
Mg401       O407   2.130       .  S
Mg401       O403   2.288   1_556  S
C402        O440   1.276       .  A
C402        O408   1.274       .  A
O403        C410   1.273       .  A
H404       C1017   1.081       .  S
C405        O420   1.270       .  A
O406        C429   1.270       .  A
O406       Mg995   2.300   1_455  S
O407       Mg421   2.169   1_556  S
O408       Mg438   2.294   1_554  S
C409        O422   1.272       .  A
C409        O414   1.273       .  A
C410        O437   1.271       .  A
Mg411       O418   2.158       .  S
Mg411       O412   2.308   1_554  S
O413        C417   1.267   1_455  A
O414       Mg421   2.287   1_556  S
O415        C434   1.269       .  A
O416        C436   1.278       .  A
O416       Mg432   2.321   1_554  S
C417       H1004   1.081       .  S
C417        O996   1.234       .  S
O418       Mg432   2.167   1_554  S
O418        C429   1.236       .  S
O419       Mg438   2.147       .  S
O420       Mg432   2.295       .  S
Mg421       O437   2.267       .  S
O422      Mg1038   2.269       .  S
O424       Mg995   2.163   1_456  S
O424       Mg432   2.148       .  S
O424       C1027   1.236   1_455  S
H425       C1027   1.081   1_455  S
H426        C429   1.081       .  S
C427       H1025   1.081       .  S
C427       O1024   1.236       .  S
O431      Mg1038   2.288       .  S
C434        O439   1.276       .  A
O435        C436   1.271       .  A
O435       Mg995   2.264   1_455  S
Mg438       O996   2.160   1_456  S
Mg438      O1022   2.269   1_455  S
Mg438      O1031   2.288   1_455  S
O441       Mg443   2.143       .  S
O441      Mg1049   2.170   1_455  S
O441       C1076   1.235       .  S
C442        H481   1.081       .  S
C442        O455   1.236       .  S
C442        O479   1.270       .  A
Mg443       O487   2.284       .  S
O444       Mg469   2.148       .  S
O445        C476   1.268       .  A
O445       Mg469   2.290       .  S
C446        O448   1.270       .  A
C446        O460   1.276       .  A
O447        C475   1.268   1_565  A
O447      Mg1049   2.290   1_455  S
O448       Mg480   2.260       .  S
Mg449      O1041   2.170       .  S
Mg449       O455   2.146       .  S
Mg449      O1047   2.290       .  S
Mg449      O1063   2.282       .  S
Mg449       O451   2.306       .  S
C450        O488   1.271       .  A
C450        O456   1.277       .  A
O451        C458   1.276       .  A
C453       H1078   1.081   1_455  S
C453       O1067   1.235   1_455  S
C453        O468   1.269       .  A
O454        C477   1.267       .  A
O455       Mg469   2.170       .  S
O456       Mg486   2.311       .  S
C457        O470   1.274       .  A
C457        O462   1.276       .  A
C458        O485   1.274       .  A
Mg459       O466   2.131       .  S
Mg459      O1067   2.166   1_455  S
Mg459       O460   2.303       .  S
Mg459      O1061   2.296   1_455  S
Mg459      O1088   2.267   1_455  S
O461        C465   1.270       .  A
O461      Mg1059   2.296       .  S
O462       Mg469   2.307       .  S
O463        C482   1.274       .  A
O463      Mg1049   2.282   1_455  S
O464        C484   1.273       .  A
O464       Mg480   2.293       .  S
O466       Mg480   2.167       .  S
O466        C477   1.235       .  S
O467      Mg1059   2.166       .  S
O467       Mg486   2.146       .  S
O467       C1053   1.235       .  S
O468       Mg480   2.293       .  S
Mg469       O485   2.283       .  S
H471       C1076   1.081       .  S
O472       Mg480   2.134       .  S
H474        C477   1.081       .  S
C476       H1071   1.081       .  S
C476       O1041   1.235       .  S
H478       C1053   1.081       .  S
C482        O487   1.272       .  A
O483        C484   1.272       .  A
O488      Mg1059   2.267       .  S
C489        C490   1.424       .  A
C489        C494   1.409       .  A
C490        C491   1.407       .  A
C490        N495   1.438       .  S
C491        C492   1.400       .  A
C491        H496   1.084       .  S
C492        C493   1.404       .  A
C492        C497   1.481       .  S
C493        C494   1.402       .  A
C493        N498   1.438       .  S
C494        H499   1.076       .  S
N495        H515   1.044       .  S
N495        H516   1.045       .  S
C497        C500   1.399       .  A
C497        C504   1.405       .  A
N498        H513   1.046       .  S
N498        H514   1.046       .  S
C500        C501   1.407       .  A
C500        H505   1.084       .  S
C501        C502   1.423       .  A
C501        N506   1.438       .  S
C502        C503   1.410       .  A
C503        C504   1.404       .  A
C503        H507   1.075       .  S
C504        N508   1.438       .  S
N506        H509   1.045       .  S
N506        H510   1.044       .  S
N508        H511   1.046       .  S
N508        H512   1.045       .  S
C517        C518   1.422       .  A
C517        C522   1.408       .  A
C518        C519   1.406       .  A
C518        N523   1.438       .  S
C519        C520   1.401       .  A
C519        H524   1.083       .  S
C520        C521   1.408       .  A
C520        C525   1.488       .  S
C521        C522   1.406       .  A
C521        N526   1.438       .  S
C522        H527   1.075       .  S
N523        H543   1.044       .  S
N523        H544   1.046       .  S
C525        C528   1.402       .  A
C525        C532   1.408       .  A
N526        H541   1.046       .  S
N526        H542   1.046       .  S
C528        C529   1.407       .  A
C528        H533   1.084       .  S
C529        C530   1.422       .  A
C529        N534   1.438       .  S
C530        C531   1.408       .  A
C531        C532   1.403       .  A
C531        H535   1.076       .  S
C532        N536   1.438       .  S
N534        H537   1.045       .  S
N534        H538   1.045       .  S
N536        H539   1.045       .  S
N536        H540   1.046       .  S
C545        C546   1.423       .  A
C545        C550   1.410       .  A
C546        C547   1.405       .  A
C546        N551   1.438       .  S
C547        C548   1.398       .  A
C547        H552   1.084       .  S
C548        C549   1.406       .  A
C548        C553   1.482       .  S
C549        C550   1.406       .  A
C549        N554   1.438       .  S
C550        H555   1.076       .  S
N551        H571   1.044       .  S
N551        H572   1.046       .  S
C553        C556   1.399       .  A
C553        C560   1.405       .  A
N554        H569   1.046       .  S
N554        H570   1.045       .  S
C556        C557   1.407       .  A
C556        H561   1.084       .  S
C557        C558   1.425       .  A
C557        N562   1.439       .  S
C558        C559   1.409       .  A
C559        C560   1.403       .  A
C559        H563   1.075       .  S
C560        N564   1.438       .  S
N562        H565   1.046       .  S
N562        H566   1.044       .  S
N564        H567   1.046       .  S
N564        H568   1.046       .  S
C573        C574   1.417       .  A
C573        C578   1.411       .  A
C574        C575   1.405       .  A
C574        N579   1.432       .  S
C575        C576   1.401       .  A
C575        H580   1.084       .  S
C576        C577   1.411       .  A
C576        C581   1.487       .  S
C577        C578   1.408       .  A
C577        N582   1.440       .  S
C578        H583   1.080       .  S
N579        H599   1.046       .  S
N579        H600   1.045       .  S
C581        C584   1.400       .  A
C581        C588   1.411       .  A
N582        H597   1.045       .  S
N582        H598   1.043       .  S
C584        C585   1.404       .  A
C584        H589   1.084       .  S
C585        C586   1.420       .  A
C585        N590   1.433       .  S
C586        C587   1.410       .  A
C587        C588   1.409       .  A
C587        H591   1.079       .  S
C588        N592   1.440       .  S
N590        H593   1.046       .  S
N590        H594   1.045       .  S
N592        H595   1.045       .  S
N592        H596   1.042       .  S
C601        C603   1.531   1_554  S
C601        C605   1.526   1_554  S
C601        C604   1.543   1_554  S
C601        C886   1.540       .  S
C602        C606   1.541       .  S
C602        C608   1.545       .  S
C602        C607   1.561       .  S
C602        C845   1.538       .  S
C603        C611   1.370   1_556  A
C603        C606   1.393       .  A
C604        C615   1.377   1_556  A
C604        C607   1.404       .  A
C605        C619   1.368   1_556  A
C605        C608   1.393       .  A
C606        C609   1.386       .  A
C607        C613   1.392       .  A
C608        C616   1.387       .  A
C609        N610   1.357       .  A
C609        H622   1.082       .  S
N610        C611   1.350   1_556  A
N610        C734   1.425       .  S
C611        H612   1.081       .  S
C613        N614   1.357       .  A
C613        H623   1.081       .  S
N614        C615   1.351   1_556  A
N614        C698   1.432       .  S
C615        H621   1.082       .  S
C616        N617   1.357       .  A
C616        H618   1.082       .  S
N617        C619   1.351   1_556  A
N617        C709   1.424       .  S
C619        H620   1.083       .  S
C624        C626   1.546       .  S
C624        C628   1.550       .  S
C624        C627   1.556       .  S
C624        C873   1.538       .  S
C625        C629   1.529       .  S
C625        C631   1.526       .  S
C625        C630   1.544       .  S
C625        C858   1.540       .  S
C626        C634   1.388       .  A
C626        C629   1.395       .  A
C627        C638   1.390       .  A
C627        C630   1.402       .  A
C628        C642   1.391       .  A
C628        C631   1.393       .  A
C629        C632   1.369       .  A
C630        C636   1.377       .  A
C631        C639   1.369       .  A
C632        N633   1.350       .  A
C632        H645   1.082       .  S
N633        C634   1.361       .  A
N633        C750   1.428       .  S
C634        H635   1.082       .  S
C636        N637   1.351       .  A
C636        H646   1.081       .  S
N637        C638   1.357       .  A
N637        C758   1.431       .  S
C638        H644   1.081       .  S
C639        N640   1.350       .  A
C639        H641   1.083       .  S
N640        C642   1.357       .  A
N640        C784   1.426       .  S
C642        H643   1.081       .  S
C647        C649   1.554       .  S
C647        C651   1.563       .  S
C647        C650   1.539       .  S
C647        C817   1.538       .  S
C648        C652   1.543   1_556  S
C648        C654   1.534   1_556  S
C648        C653   1.521   1_556  S
C648        C789   1.539       .  S
C649        C657   1.390       .  A
C649        C652   1.399       .  A
C650        C661   1.386       .  A
C650        C653   1.388       .  A
C651        C665   1.396       .  A
C651        C654   1.402       .  A
C652        C655   1.377   1_554  A
C653        C659   1.368   1_554  A
C654        C662   1.371   1_554  A
C655        N656   1.350   1_556  A
C655        H668   1.081       .  S
N656        C657   1.357       .  A
N656        C702   1.430       .  S
C657        H658   1.082       .  S
C659        N660   1.351   1_556  A
C659        H669   1.083       .  S
N660        C661   1.359       .  A
N660        C710   1.425       .  S
C661        H667   1.082       .  S
C662        N663   1.348   1_556  A
C662        H664   1.082       .  S
N663        C665   1.358       .  A
N663        C736   1.429       .  S
C665        H666   1.080       .  S
C670        C672   1.527       .  S
C670        C674   1.544       .  S
C670        C673   1.530       .  S
C670        C830   1.540       .  S
C671        C675   1.547       .  S
C671        C677   1.563       .  S
C671        C676   1.542       .  S
C671        C802   1.538       .  S
C672        C680   1.369       .  A
C672        C675   1.393       .  A
C673        C684   1.371       .  A
C673        C676   1.393       .  A
C674        C688   1.376       .  A
C674        C677   1.403       .  A
C675        C678   1.389       .  A
C676        C682   1.385       .  A
C677        C685   1.395       .  A
C678        N679   1.358       .  A
C678        H691   1.082       .  S
N679        C680   1.351       .  A
N679        C782   1.427       .  S
C680        H681   1.083       .  S
C682        N683   1.357       .  A
C682        H692   1.082       .  S
N683        C684   1.351       .  A
N683        C746   1.425       .  S
C684        H690   1.082       .  S
C685        N686   1.357       .  A
C685        H687   1.081       .  S
N686        C688   1.348       .  A
N686        C757   1.431       .  S
C688        H689   1.081       .  S
O693       Mg695   2.130       .  S
O693      Mg1001   2.167   1_544  S
O693       C1028   1.235   1_545  S
C694        H733   1.081       .  S
C694        O707   1.235       .  S
C694        O731   1.268       .  A
Mg695       O739   2.307   1_554  S
O696       Mg721   2.133       .  S
O697        C728   1.268       .  A
O697       Mg721   2.284       .  S
C698        O700   1.275       .  A
C698        O712   1.276       .  A
O699        C727   1.269       .  A
O699      Mg1001   2.296   1_545  S
O700       Mg732   2.286       .  S
Mg701       O993   2.167   1_556  S
Mg701       O707   2.130       .  S
Mg701       O999   2.296       .  S
Mg701      O1015   2.254       .  S
Mg701       O703   2.288   1_556  S
C702        O740   1.276       .  A
C702        O708   1.274       .  A
O703        C710   1.273       .  A
C705       H1030   1.081       .  S
C705       O1019   1.236       .  S
C705        O720   1.270   1_565  A
O706        C729   1.270       .  A
O707       Mg721   2.169   1_556  S
O708       Mg738   2.294   1_554  S
C709        O722   1.272       .  A
C709        O714   1.273       .  A
C710        O737   1.271       .  A
Mg711       O718   2.158       .  S
Mg711      O1019   2.171   1_544  S
Mg711       O712   2.308   1_554  S
Mg711      O1013   2.287   1_545  S
Mg711      O1040   2.292   1_545  S
O713        C717   1.267       .  A
O713      Mg1011   2.287       .  S
O714       Mg721   2.287   1_556  S
O715        C734   1.269       .  A
O715      Mg1001   2.254   1_545  S
O716        C736   1.278       .  A
O716       Mg732   2.320   1_554  S
O718       Mg732   2.167   1_554  S
O718        C729   1.236       .  S
O719      Mg1011   2.171   1_556  S
O719       Mg738   2.147       .  S
O719       C1005   1.236       .  S
O720       Mg732   2.295       .  S
Mg721       O737   2.267       .  S
H723       C1028   1.081   1_545  S
O724       Mg732   2.148       .  S
H726        C729   1.081       .  S
C728       H1023   1.081       .  S
C728        O993   1.235       .  S
H730       C1005   1.081       .  S
C734        O739   1.276       .  A
O735        C736   1.271       .  A
O740      Mg1011   2.292       .  S
O741       Mg743   2.143       .  S
C742        H781   1.081       .  S
C742        O755   1.236       .  S
C742        O779   1.270       .  A
Mg743      O1072   2.169       .  S
Mg743       O787   2.284       .  S
Mg743      O1083   2.268       .  S
Mg743      O1054   2.285       .  S
O744      Mg1086   2.165       .  S
O744       Mg769   2.148       .  S
O744       C1065   1.236       .  S
O745        C776   1.268   1_655  A
O745       Mg769   2.290       .  S
C746        O748   1.270       .  A
C746        O760   1.276       .  A
O747        C775   1.268       .  A
O748       Mg780   2.260       .  S
Mg749       O755   2.146       .  S
Mg749       O751   2.306       .  S
C750        O788   1.271       .  A
C750        O756   1.277       .  A
O751        C758   1.276       .  A
H752       C1065   1.081       .  S
C753        O768   1.269       .  A
O754        C777   1.267       .  A
O754      Mg1043   2.285   1_545  S
O755       Mg769   2.170       .  S
O756       Mg786   2.311       .  S
C757        O770   1.274       .  A
C757        O762   1.276       .  A
C758        O785   1.274       .  A
Mg759       O766   2.131       .  S
Mg759       O760   2.303       .  S
O761        C765   1.270       .  A
O762       Mg769   2.307       .  S
O763        C782   1.274       .  A
O764        C784   1.273       .  A
O764       Mg780   2.293       .  S
C765       H1052   1.081   1_545  S
C765       O1044   1.236   1_545  S
O766       Mg780   2.167       .  S
O766        C777   1.235       .  S
O767       Mg786   2.146       .  S
O768       Mg780   2.293       .  S
Mg769       O785   2.283       .  S
O770      Mg1086   2.281       .  S
O772      Mg1043   2.169   1_545  S
O772       Mg780   2.134       .  S
O772       C1075   1.235       .  S
H773       C1075   1.081       .  S
H774        C777   1.081       .  S
C775       H1073   1.081       .  S
C775       O1072   1.235       .  S
O779      Mg1086   2.295       .  S
C782        O787   1.272       .  A
O783        C784   1.272       .  A
O783      Mg1043   2.268   1_545  S
Mg786      O1044   2.165   1_545  S
Mg786      O1070   2.281   1_545  S
Mg786      O1079   2.295   1_545  S
C789        C790   1.424       .  A
C789        C794   1.409       .  A
C790        C791   1.407       .  A
C790        N795   1.438       .  S
C791        C792   1.400       .  A
C791        H796   1.084       .  S
C792        C793   1.404       .  A
C792        C797   1.481       .  S
C793        C794   1.402       .  A
C793        N798   1.438       .  S
C794        H799   1.076       .  S
N795        H815   1.044       .  S
N795        H816   1.045       .  S
C797        C800   1.399       .  A
C797        C804   1.405       .  A
N798        H813   1.046       .  S
N798        H814   1.046       .  S
C800        C801   1.407       .  A
C800        H805   1.084       .  S
C801        C802   1.423       .  A
C801        N806   1.438       .  S
C802        C803   1.410       .  A
C803        C804   1.404       .  A
C803        H807   1.075       .  S
C804        N808   1.438       .  S
N806        H809   1.045       .  S
N806        H810   1.044       .  S
N808        H811   1.046       .  S
N808        H812   1.045       .  S
C817        C818   1.422       .  A
C817        C822   1.408       .  A
C818        C819   1.406       .  A
C818        N823   1.438       .  S
C819        C820   1.401       .  A
C819        H824   1.083       .  S
C820        C821   1.408       .  A
C820        C825   1.488       .  S
C821        C822   1.406       .  A
C821        N826   1.438       .  S
C822        H827   1.075       .  S
N823        H843   1.044       .  S
N823        H844   1.046       .  S
C825        C828   1.402       .  A
C825        C832   1.408       .  A
N826        H841   1.046       .  S
N826        H842   1.046       .  S
C828        C829   1.407       .  A
C828        H833   1.084       .  S
C829        C830   1.422       .  A
C829        N834   1.438       .  S
C830        C831   1.408       .  A
C831        C832   1.403       .  A
C831        H835   1.076       .  S
C832        N836   1.438       .  S
N834        H837   1.045       .  S
N834        H838   1.045       .  S
N836        H839   1.045       .  S
N836        H840   1.046       .  S
C845        C846   1.423       .  A
C845        C850   1.410       .  A
C846        C847   1.405       .  A
C846        N851   1.438       .  S
C847        C848   1.398       .  A
C847        H852   1.084       .  S
C848        C849   1.406       .  A
C848        C853   1.482       .  S
C849        C850   1.406       .  A
C849        N854   1.438       .  S
C850        H855   1.076       .  S
N851        H871   1.044       .  S
N851        H872   1.046       .  S
C853        C856   1.399       .  A
C853        C860   1.405       .  A
N854        H869   1.046       .  S
N854        H870   1.045       .  S
C856        C857   1.407       .  A
C856        H861   1.084       .  S
C857        C858   1.425       .  A
C857        N862   1.439       .  S
C858        C859   1.409       .  A
C859        C860   1.403       .  A
C859        H863   1.075       .  S
C860        N864   1.438       .  S
N862        H865   1.046       .  S
N862        H866   1.044       .  S
N864        H867   1.046       .  S
N864        H868   1.046       .  S
C873        C874   1.417       .  A
C873        C878   1.411       .  A
C874        C875   1.405       .  A
C874        N879   1.432       .  S
C875        C876   1.401       .  A
C875        H880   1.084       .  S
C876        C877   1.411       .  A
C876        C881   1.487       .  S
C877        C878   1.408       .  A
C877        N882   1.440       .  S
C878        H883   1.080       .  S
N879        H899   1.046       .  S
N879        H900   1.045       .  S
C881        C884   1.400       .  A
C881        C888   1.411       .  A
N882        H897   1.045       .  S
N882        H898   1.043       .  S
C884        C885   1.404       .  A
C884        H889   1.084       .  S
C885        C886   1.420       .  A
C885        N890   1.433       .  S
C886        C887   1.410       .  A
C887        C888   1.409       .  A
C887        H891   1.079       .  S
C888        N892   1.440       .  S
N890        H893   1.046       .  S
N890        H894   1.045       .  S
N892        H895   1.045       .  S
N892        H896   1.042       .  S
C901        C903   1.531   1_554  S
C901        C905   1.526   1_554  S
C901        C904   1.543   1_554  S
C901       C1186   1.540       .  S
C902        C906   1.541       .  S
C902        C908   1.545       .  S
C902        C907   1.561       .  S
C902       C1145   1.538       .  S
C903        C911   1.370   1_556  A
C903        C906   1.393       .  A
C904        C915   1.377   1_556  A
C904        C907   1.404       .  A
C905        C919   1.368   1_556  A
C905        C908   1.393       .  A
C906        C909   1.386       .  A
C907        C913   1.392       .  A
C908        C916   1.387       .  A
C909        N910   1.357       .  A
C909        H922   1.082       .  S
N910        C911   1.350   1_556  A
N910       C1034   1.425       .  S
C911        H912   1.081       .  S
C913        N914   1.357       .  A
C913        H923   1.081       .  S
N914        C915   1.351   1_556  A
N914        C998   1.432       .  S
C915        H921   1.082       .  S
C916        N917   1.357       .  A
C916        H918   1.082       .  S
N917        C919   1.351   1_556  A
N917       C1009   1.424       .  S
C919        H920   1.083       .  S
C924        C926   1.546       .  S
C924        C928   1.550       .  S
C924        C927   1.556       .  S
C924       C1173   1.538       .  S
C925        C929   1.529       .  S
C925        C931   1.526       .  S
C925        C930   1.544       .  S
C925       C1158   1.540       .  S
C926        C934   1.388       .  A
C926        C929   1.395       .  A
C927        C938   1.390       .  A
C927        C930   1.402       .  A
C928        C942   1.391       .  A
C928        C931   1.393       .  A
C929        C932   1.369       .  A
C930        C936   1.377       .  A
C931        C939   1.369       .  A
C932        N933   1.350       .  A
C932        H945   1.082       .  S
N933        C934   1.361       .  A
N933       C1050   1.428       .  S
C934        H935   1.082       .  S
C936        N937   1.351       .  A
C936        H946   1.081       .  S
N937        C938   1.357       .  A
N937       C1058   1.431       .  S
C938        H944   1.081       .  S
C939        N940   1.350       .  A
C939        H941   1.083       .  S
N940        C942   1.357       .  A
N940       C1084   1.426       .  S
C942        H943   1.081       .  S
C947        C949   1.554       .  S
C947        C951   1.563       .  S
C947        C950   1.539       .  S
C947       C1117   1.538       .  S
C948        C952   1.543   1_556  S
C948        C954   1.534   1_556  S
C948        C953   1.521   1_556  S
C948       C1089   1.539       .  S
C949        C957   1.390       .  A
C949        C952   1.399       .  A
C950        C961   1.386       .  A
C950        C953   1.388       .  A
C951        C965   1.396       .  A
C951        C954   1.402       .  A
C952        C955   1.377   1_554  A
C953        C959   1.368   1_554  A
C954        C962   1.371   1_554  A
C955        N956   1.350   1_556  A
C955        H968   1.081       .  S
N956        C957   1.357       .  A
N956       C1002   1.430       .  S
C957        H958   1.082       .  S
C959        N960   1.351   1_556  A
C959        H969   1.083       .  S
N960        C961   1.359       .  A
N960       C1010   1.425       .  S
C961        H967   1.082       .  S
C962        N963   1.348   1_556  A
C962        H964   1.082       .  S
N963        C965   1.358       .  A
N963       C1036   1.429       .  S
C965        H966   1.080       .  S
C970        C972   1.527       .  S
C970        C974   1.544       .  S
C970        C973   1.530       .  S
C970       C1130   1.540       .  S
C971        C975   1.547       .  S
C971        C977   1.563       .  S
C971        C976   1.542       .  S
C971       C1102   1.538       .  S
C972        C980   1.369       .  A
C972        C975   1.393       .  A
C973        C984   1.371       .  A
C973        C976   1.393       .  A
C974        C988   1.376       .  A
C974        C977   1.403       .  A
C975        C978   1.389       .  A
C976        C982   1.385       .  A
C977        C985   1.395       .  A
C978        N979   1.358       .  A
C978        H991   1.082       .  S
N979        C980   1.351       .  A
N979       C1082   1.427       .  S
C980        H981   1.083       .  S
C982        N983   1.357       .  A
C982        H992   1.082       .  S
N983        C984   1.351       .  A
N983       C1046   1.425       .  S
C984        H990   1.082       .  S
C985        N986   1.357       .  A
C985        H987   1.081       .  S
N986        C988   1.348       .  A
N986       C1057   1.431       .  S
C988        H989   1.081       .  S
O993       Mg995   2.130       .  S
C994       H1033   1.081       .  S
C994       O1007   1.235       .  S
C994       O1031   1.268       .  A
Mg995      O1039   2.307   1_554  S
O996      Mg1021   2.133       .  S
O997       C1028   1.268       .  A
O997      Mg1021   2.284       .  S
C998       O1000   1.275       .  A
C998       O1012   1.276       .  A
O999       C1027   1.269       .  A
O1000     Mg1032   2.286       .  S
Mg1001     O1007   2.130       .  S
Mg1001     O1003   2.288   1_556  S
C1002      O1040   1.276       .  A
C1002      O1008   1.274       .  A
O1003      C1010   1.273       .  A
C1005      O1020   1.270       .  A
O1006      C1029   1.270       .  A
O1007     Mg1021   2.169   1_556  S
O1008     Mg1038   2.294   1_554  S
C1009      O1022   1.272       .  A
C1009      O1014   1.273       .  A
C1010      O1037   1.271       .  A
Mg1011     O1018   2.158       .  S
Mg1011     O1012   2.308   1_554  S
O1013      C1017   1.267       .  A
O1014     Mg1021   2.287   1_556  S
O1015      C1034   1.269       .  A
O1016      C1036   1.278       .  A
O1016     Mg1032   2.321   1_554  S
O1018     Mg1032   2.167   1_554  S
O1018      C1029   1.236       .  S
O1019     Mg1038   2.147       .  S
O1020     Mg1032   2.295       .  S
Mg1021     O1037   2.267       .  S
O1024     Mg1032   2.148       .  S
H1026      C1029   1.081       .  S
C1034      O1039   1.276       .  A
O1035      C1036   1.271       .  A
O1041     Mg1043   2.143       .  S
C1042      H1081   1.081       .  S
C1042      O1055   1.236       .  S
C1042      O1079   1.270       .  A
Mg1043     O1087   2.284       .  S
O1044     Mg1069   2.148       .  S
O1045      C1076   1.268   1_655  A
O1045     Mg1069   2.290       .  S
C1046      O1048   1.270       .  A
C1046      O1060   1.276       .  A
O1047      C1075   1.268   1_565  A
O1048     Mg1080   2.260       .  S
Mg1049     O1055   2.146       .  S
Mg1049     O1051   2.306       .  S
C1050      O1088   1.271       .  A
C1050      O1056   1.277       .  A
O1051      C1058   1.276       .  A
C1053      O1068   1.269       .  A
O1054      C1077   1.267       .  A
O1055     Mg1069   2.170       .  S
O1056     Mg1086   2.311       .  S
C1057      O1070   1.274       .  A
C1057      O1062   1.276       .  A
C1058      O1085   1.274       .  A
Mg1059     O1066   2.131       .  S
Mg1059     O1060   2.303       .  S
O1061      C1065   1.270       .  A
O1062     Mg1069   2.307       .  S
O1063      C1082   1.274       .  A
O1064      C1084   1.273       .  A
O1064     Mg1080   2.293       .  S
O1066     Mg1080   2.167       .  S
O1066      C1077   1.235       .  S
O1067     Mg1086   2.146       .  S
O1068     Mg1080   2.293       .  S
Mg1069     O1085   2.283       .  S
O1072     Mg1080   2.134       .  S
H1074      C1077   1.081       .  S
C1082      O1087   1.272       .  A
O1083      C1084   1.272       .  A
C1089      C1090   1.424       .  A
C1089      C1094   1.409       .  A
C1090      C1091   1.407       .  A
C1090      N1095   1.438       .  S
C1091      C1092   1.400       .  A
C1091      H1096   1.084       .  S
C1092      C1093   1.404       .  A
C1092      C1097   1.481       .  S
C1093      C1094   1.402       .  A
C1093      N1098   1.438       .  S
C1094      H1099   1.076       .  S
N1095      H1115   1.044       .  S
N1095      H1116   1.045       .  S
C1097      C1100   1.399       .  A
C1097      C1104   1.405       .  A
N1098      H1113   1.046       .  S
N1098      H1114   1.046       .  S
C1100      C1101   1.407       .  A
C1100      H1105   1.084       .  S
C1101      C1102   1.423       .  A
C1101      N1106   1.438       .  S
C1102      C1103   1.410       .  A
C1103      C1104   1.404       .  A
C1103      H1107   1.075       .  S
C1104      N1108   1.438       .  S
N1106      H1109   1.045       .  S
N1106      H1110   1.044       .  S
N1108      H1111   1.046       .  S
N1108      H1112   1.045       .  S
C1117      C1118   1.422       .  A
C1117      C1122   1.408       .  A
C1118      C1119   1.406       .  A
C1118      N1123   1.438       .  S
C1119      C1120   1.401       .  A
C1119      H1124   1.083       .  S
C1120      C1121   1.408       .  A
C1120      C1125   1.488       .  S
C1121      C1122   1.406       .  A
C1121      N1126   1.438       .  S
C1122      H1127   1.075       .  S
N1123      H1143   1.044       .  S
N1123      H1144   1.046       .  S
C1125      C1128   1.402       .  A
C1125      C1132   1.408       .  A
N1126      H1141   1.046       .  S
N1126      H1142   1.046       .  S
C1128      C1129   1.407       .  A
C1128      H1133   1.084       .  S
C1129      C1130   1.422       .  A
C1129      N1134   1.438       .  S
C1130      C1131   1.408       .  A
C1131      C1132   1.403       .  A
C1131      H1135   1.076       .  S
C1132      N1136   1.438       .  S
N1134      H1137   1.045       .  S
N1134      H1138   1.045       .  S
N1136      H1139   1.045       .  S
N1136      H1140   1.046       .  S
C1145      C1146   1.423       .  A
C1145      C1150   1.410       .  A
C1146      C1147   1.405       .  A
C1146      N1151   1.438       .  S
C1147      C1148   1.398       .  A
C1147      H1152   1.084       .  S
C1148      C1149   1.406       .  A
C1148      C1153   1.482       .  S
C1149      C1150   1.406       .  A
C1149      N1154   1.438       .  S
C1150      H1155   1.076       .  S
N1151      H1171   1.044       .  S
N1151      H1172   1.046       .  S
C1153      C1156   1.399       .  A
C1153      C1160   1.405       .  A
N1154      H1169   1.046       .  S
N1154      H1170   1.045       .  S
C1156      C1157   1.407       .  A
C1156      H1161   1.084       .  S
C1157      C1158   1.425       .  A
C1157      N1162   1.439       .  S
C1158      C1159   1.409       .  A
C1159      C1160   1.403       .  A
C1159      H1163   1.075       .  S
C1160      N1164   1.438       .  S
N1162      H1165   1.046       .  S
N1162      H1166   1.044       .  S
N1164      H1167   1.046       .  S
N1164      H1168   1.046       .  S
C1173      C1174   1.417       .  A
C1173      C1178   1.411       .  A
C1174      C1175   1.405       .  A
C1174      N1179   1.432       .  S
C1175      C1176   1.401       .  A
C1175      H1180   1.084       .  S
C1176      C1177   1.411       .  A
C1176      C1181   1.487       .  S
C1177      C1178   1.408       .  A
C1177      N1182   1.440       .  S
C1178      H1183   1.080       .  S
N1179      H1199   1.046       .  S
N1179      H1200   1.045       .  S
C1181      C1184   1.400       .  A
C1181      C1188   1.411       .  A
N1182      H1197   1.045       .  S
N1182      H1198   1.043       .  S
C1184      C1185   1.404       .  A
C1184      H1189   1.084       .  S
C1185      C1186   1.420       .  A
C1185      N1190   1.433       .  S
C1186      C1187   1.410       .  A
C1187      C1188   1.409       .  A
C1187      H1191   1.079       .  S
C1188      N1192   1.440       .  S
N1190      H1193   1.046       .  S
N1190      H1194   1.045       .  S
N1192      H1195   1.045       .  S
N1192      H1196   1.042       .  S
