geometry optimzed in LAMMPS
_audit_creation_date              2020-12-01 
_audit_creation_method            'lammps2cif' 
_symmetry_space_group_name_H-M    'P1' 
_symmetry_Int_Tables_number       1 
_symmetry_cell_setting            triclinic 
loop_ 
_symmetry_equiv_pos_as_xyz 
  x,y,z 
_cell_length_a                    32.93629579 
_cell_length_b                    32.94332957779094 
_cell_length_c                    26.0689126028831 
_cell_angle_alpha                 89.19535542907978 
_cell_angle_beta                  89.19112997355775 
_cell_angle_gamma                 120.07996826375583 
loop_ 
_atom_site_label 
_atom_site_type_symbol 
_atom_site_fract_x 
_atom_site_fract_y 
_atom_site_fract_z 
_atom_site_charge 
C1          C  0.66271479  0.33272912  0.10049175     0.30700
C2          C  0.66169918  0.32828130  0.99472412     0.33100
C3          C  0.68633355  0.30681264  0.07646963    -0.05500
C4          C  0.61393260  0.30565055  0.07614304    -0.06300
C5          C  0.68668563  0.37978284  0.07056947    -0.06100
C6          C  0.68770080  0.30637789  0.02277196    -0.05500
C7          C  0.61383033  0.30456330  0.02276673    -0.06300
C8          C  0.68701958  0.37801553  0.01719586    -0.06100
C9          C  0.71488376  0.28684064  0.00947576    -0.31500
N10         N  0.72641886  0.27207757  0.05285334     0.15000
C11         C  0.70841617  0.28317019  0.09383153    -0.31500
H12         H  0.71229519  0.27551562  0.13334173     0.16900
C13         C  0.56804582  0.27747950  0.00816807    -0.30500
N14         N  0.54031613  0.26127662  0.05106696     0.13700
C15         C  0.56786375  0.27687269  0.09268090    -0.30500
C16         C  0.71473942  0.42389088  0.99924993    -0.30800
N17         N  0.72928704  0.45287988  0.03995508     0.14200
H18         H  0.72358820  0.43549289  0.95952809     0.16800
C19         C  0.71280088  0.42610315  0.08360272    -0.30800
H20         H  0.71977268  0.43943504  0.12210764     0.16800
H21         H  0.55499321  0.26787706  0.13202335     0.16800
H22         H  0.72556981  0.28339953  0.97109099     0.16900
H23         H  0.55574200  0.26965248  0.96932534     0.16800
C24         C  0.66327963  0.33446281  0.49494216     0.30700
C25         C  0.66289993  0.33006864  0.60089612     0.30700
C26         C  0.68552415  0.30728954  0.51915359    -0.05500
C27         C  0.69154263  0.38205684  0.52220330    -0.06300
C28         C  0.61500746  0.31260409  0.52236608    -0.06100
C29         C  0.68445682  0.30469392  0.57256955    -0.05500
C30         C  0.68963355  0.37982420  0.57596808    -0.06300
C31         C  0.61476961  0.31136934  0.57578472    -0.06100
C32         C  0.70918021  0.28318185  0.58713600    -0.31500
N33         N  0.72546585  0.27255540  0.54430853     0.15000
C34         C  0.71215341  0.28796390  0.50265909    -0.31500
H35         H  0.72164998  0.28565910  0.46330955     0.16900
C36         C  0.71205732  0.42546159  0.59244621    -0.30500
N37         N  0.73050596  0.45498746  0.55105234     0.13700
C38         C  0.71939005  0.42891816  0.50824934    -0.30500
C39         C  0.56884013  0.29424971  0.59213259    -0.30800
N40         N  0.54127002  0.28253210  0.55056100     0.14200
H41         H  0.55591736  0.28946361  0.63145613     0.16800
C42         C  0.56908227  0.29401284  0.50763451    -0.30800
H43         H  0.55671734  0.28880226  0.46874248     0.16800
H44         H  0.73001538  0.44348607  0.46974097     0.16800
H45         H  0.71597232  0.27683434  0.62604453     0.16900
H46         H  0.71453098  0.43666703  0.63165579     0.16800
C47         C  0.33518329  0.67103746  0.00039072     0.30700
C48         C  0.33702481  0.66962066  0.89455622     0.30700
C49         C  0.31055530  0.69439413  0.97249162    -0.05500
C50         C  0.38388500  0.69523673  0.97396966    -0.06300
C51         C  0.31014251  0.62205048  0.97598584    -0.06100
C52         C  0.31293528  0.69512662  0.91875736    -0.05500
C53         C  0.38517326  0.69583464  0.92048101    -0.06300
C54         C  0.31250099  0.62186729  0.92273306    -0.06100
C55         C  0.29219593  0.72021224  0.90167351    -0.31500
N56         N  0.27453866  0.73167233  0.94277904     0.15000
C57         C  0.28504911  0.71564628  0.98600432    -0.31500
H58         H  0.27479071  0.71935508  0.02449441     0.16900
C59         C  0.43168550  0.72465040  0.90549706    -0.30500
N60         N  0.45814655  0.73842494  0.94801286     0.13700
C61         C  0.42939157  0.72106838  0.99006755    -0.30500
C62         C  0.28984139  0.57584598  0.90787554    -0.30800
N63         N  0.27276925  0.54781731  0.95047703     0.14200
H64         H  0.28625246  0.56356698  0.86902912     0.16800
C65         C  0.28335026  0.57549018  0.99198167    -0.30800
H66         H  0.27288478  0.56228020  0.03104351     0.16800
H67         H  0.44080315  0.72727603  0.02933118     0.16800
H68         H  0.28908820  0.72863823  0.86217550     0.16900
H69         H  0.44558689  0.73475673  0.86661498     0.16800
C70         C  0.33260406  0.66823508  0.39534259     0.30700
C71         C  0.33094748  0.66413912  0.50128860     0.30700
C72         C  0.31050310  0.69416771  0.42282836    -0.05500
C73         C  0.30603730  0.61907983  0.42054444    -0.06300
C74         C  0.38090219  0.69069019  0.42140974    -0.06100
C75         C  0.30815471  0.69070932  0.47648791    -0.05500
C76         C  0.30401794  0.61667151  0.47400647    -0.06300
C77         C  0.37943380  0.68750029  0.47480375    -0.06100
C78         C  0.28357626  0.71219652  0.49276825    -0.31500
N79         N  0.27376653  0.73105735  0.45138921     0.15000
C80         C  0.29066556  0.72084657  0.40869432    -0.31500
H81         H  0.28767058  0.73128173  0.37002049     0.16900
C82         C  0.27639315  0.56967112  0.48766611    -0.30500
N83         N  0.26448594  0.54406242  0.44444639     0.13700
C84         C  0.28201240  0.57385889  0.40319398    -0.30500
C85         C  0.42486746  0.70993322  0.49147134    -0.30800
N86         N  0.45410695  0.72736614  0.44990068     0.14200
H87         H  0.43593359  0.71383131  0.53084125     0.16800
C88         C  0.42798297  0.71710102  0.40714698    -0.30800
H89         H  0.44250042  0.72863290  0.36868072     0.16800
H90         H  0.27805626  0.56329518  0.36362122     0.16800
H91         H  0.27352080  0.71416016  0.53193984     0.16900
H92         H  0.26655437  0.55478310  0.52618563     0.16800
O93         O  0.05745234  0.97687410  0.03523655    -0.87600
C94         C  0.07476590  0.07331462  0.92387728     0.88400
Mg95       Mg  0.00485340  0.90422874  0.03244446     1.58100
O96         O  0.02369371  0.08341750  0.03876451    -0.87400
O97         O  0.07912910  0.03644172  0.08605134    -0.74700
C98         C  0.80941542  0.90836734  0.97983537     0.93400
O99         O  0.03818716  0.96120861  0.91433813    -0.74500
O100        O  0.82811632  0.88300901  0.97315187    -0.82000
Mg101      Mg  0.09949292  0.00707140  0.96629740     1.58000
C102        C  0.90569398  0.09869848  0.03117724     0.93400
O103        O  0.16644375  0.05207516  0.01017800    -0.80300
H104        H  0.02603406  0.09315152  0.11436356    -0.05600
C105        C  0.93247549  0.00899288  0.92662662     0.88300
O106        O  0.95615841  0.91631423  0.08661634    -0.74800
O107        O  0.08085600  0.06059270  0.96647599    -0.87600
O108        O  0.94869023  0.11975312  0.01628430    -0.80400
C109        C  0.09972232  0.19473632  0.97672696     0.93500
C110        C  0.18990158  0.09352525  0.02679524     0.93300
Mg111      Mg  0.90093912  0.99691777  0.03830244     1.58000
O112        O  0.83265813  0.95021306  0.99574291    -0.80300
O113        O  0.96240808  0.04341374  0.08979529    -0.74500
O114        O  0.11788958  0.17051383  0.99185365    -0.80400
O115        O  0.12001046  0.95148816  0.96461639    -0.82100
O116        O  0.88421066  0.83038402  0.01159706    -0.80400
C117        C  0.00506991  0.07475243  0.08206480     0.87800
O118        O  0.91931176  0.94227901  0.03911316    -0.87500
O119        O  0.94322687  0.02668217  0.96938096    -0.87600
O120        O  0.91991937  0.96617443  0.91972086    -0.74700
Mg121      Mg  0.09553710  0.10070764  0.03519202     1.58000
O122        O  0.05555601  0.17650431  0.97154457    -0.82100
H123        H  0.06386019  0.97157241  0.11074011    -0.05800
O124        O  0.97722103  0.92031050  0.96551069    -0.87300
H125        H  0.97451087  0.91162365  0.88970572    -0.05600
H126        H  0.90695187  0.93053140  0.11466306    -0.05800
C127        C  0.99560854  0.92964732  0.92207166     0.87700
C128        C  0.06712765  0.99387274  0.07842441     0.88300
C129        C  0.92614979  0.92948360  0.08132268     0.88400
H130        H  0.93496935  0.03076718  0.89409486    -0.05800
O131        O  0.04487062  0.08640051  0.91750166    -0.74800
Mg132      Mg  0.90480908  0.90187011  0.97020329     1.58000
H133        H  0.09428025  0.07188119  0.89105623    -0.05800
C134        C  0.09707356  0.90716816  0.97071630     0.93400
O135        O  0.94884822  0.82790128  0.03046119    -0.82000
C136        C  0.90471671  0.80766184  0.02474921     0.93400
O137        O  0.17168499  0.11920477  0.03354273    -0.82000
Mg138      Mg  0.99717362  0.09971502  0.97117923     1.58200
O139        O  0.05439042  0.88544133  0.98680495    -0.80400
O140        O  0.88167862  0.05428148  0.03742129    -0.82000
O141        O  0.97822783  0.05949583  0.46304423    -0.87600
C142        C  0.06650811  0.07469170  0.57923424     0.88400
Mg143      Mg  0.90477331  0.00711820  0.46741598     1.58100
O144        O  0.08029576  0.02055353  0.47063793    -0.87400
O145        O  0.04013319  0.07856594  0.41407366    -0.74700
C146        C  0.89751420  0.80880583  0.53507557     0.93400
O147        O  0.95536523  0.04225765  0.58416616    -0.74500
O148        O  0.87444839  0.83012127  0.53924799    -0.82000
Mg149      Mg  0.00581521  0.10278055  0.52944482     1.58000
C150        C  0.09253292  0.90212743  0.48633032     0.93400
O151        O  0.05753500  0.17069041  0.48367871    -0.80300
H152        H  0.09469680  0.02223970  0.39569572    -0.05600
C153        C  0.99881992  0.93087688  0.58650749     0.88300
O154        O  0.91803471  0.95689342  0.41854834    -0.74800
O155        O  0.05750378  0.08169592  0.53519910    -0.87600
O156        O  0.11210902  0.94444675  0.50111148    -0.80400
C157        C  0.18944270  0.09452560  0.53211783     0.93500
C158        C  0.10023033  0.19133511  0.46775087     0.93300
Mg159      Mg  0.99224241  0.89856461  0.47678024     1.58000
O160        O  0.94099612  0.83011997  0.52212410    -0.80300
O161        O  0.04263650  0.95917150  0.42279858    -0.74500
O162        O  0.16728741  0.11329191  0.51273509    -0.80400
O163        O  0.95083541  0.12478571  0.52507848    -0.82100
O164        O  0.82970711  0.88734251  0.49253984    -0.80400
C165        C  0.07403869  0.00164886  0.42862868     0.87800
O166        O  0.94007850  0.91957407  0.47114993    -0.87500
O167        O  0.01873898  0.94101196  0.54382972    -0.87600
O168        O  0.95610821  0.91991332  0.59225301    -0.74700
Mg169      Mg  0.10069649  0.09306421  0.46751879     1.58000
O170        O  0.16964483  0.05050965  0.54138605    -0.82100
H171        H  0.97737590  0.06522740  0.38671282    -0.05800
O172        O  0.91721288  0.98014501  0.53742654    -0.87300
H173        H  0.90420503  0.97923422  0.61264326    -0.05600
H174        H  0.93195596  0.90622699  0.39629603    -0.05800
C175        C  0.92421051  0.99947487  0.57926037     0.87700
C176        C  0.99758322  0.06809083  0.42010488     0.88300
C177        C  0.92982777  0.92622014  0.42759777     0.88400
H178        H  0.01859151  0.93270065  0.61990697    -0.05800
O179        O  0.07714274  0.04337012  0.58938708    -0.74800
Mg180      Mg  0.89635101  0.90697730  0.53827199     1.58000
H181        H  0.06373412  0.09468631  0.61017158    -0.05800
C182        C  0.90650428  0.10073105  0.52070909     0.93400
O183        O  0.82712320  0.95152603  0.47119763    -0.82000
C184        C  0.80706295  0.90714997  0.47745946     0.93400
O185        O  0.12309733  0.16995608  0.46275384    -0.82000
Mg186      Mg  0.09195413  0.99393226  0.54160140     1.58200
O187        O  0.88594678  0.05777313  0.50799853    -0.80400
O188        O  0.04829877  0.87763323  0.48085424    -0.82000
C189        C  0.17069984  0.41695705  0.45747921    -0.04800
C190        C  0.19602668  0.39439565  0.44363177     0.09400
C191        C  0.24383327  0.42174925  0.42853798    -0.02100
C192        C  0.26614332  0.47121856  0.42791048    -0.00400
C193        C  0.24106296  0.49360582  0.44300278    -0.04000
C194        C  0.19341002  0.46638887  0.45795354     0.03000
C195        C  0.17303840  0.34198753  0.44876125     0.09800
C196        C  0.27030372  0.39898696  0.41489637     0.35700
C197        C  0.16803108  0.48955778  0.47408704     0.39200
C198        C  0.15881156  0.31359383  0.40501637    -0.04400
C199        C  0.13542416  0.26413511  0.41075400     0.02800
C200        C  0.12556383  0.24299241  0.46022846    -0.04000
C201        C  0.14134648  0.27140543  0.50374547    -0.00200
C202        C  0.16490876  0.32064922  0.49807225    -0.02800
C203        C  0.16798591  0.33532913  0.35424436     0.36500
C204        C  0.13454578  0.24980998  0.55443981     0.40100
C205        C  0.12168086  0.23501109  0.36594238     0.39200
C206        C  0.18105730  0.34950738  0.54307930     0.36200
C207        C  0.12125383  0.38912501  0.47146655     0.36800
C208        C  0.31549718  0.49934405  0.41385945     0.40100
N209        N  0.11096740  0.21175043  0.33017374    -0.38000
N210        N  0.17554450  0.35279943  0.31375290    -0.39600
N211        N  0.12938323  0.23239485  0.59469116    -0.37300
N212        N  0.19384126  0.37255711  0.57895599    -0.39700
N213        N  0.29137908  0.38079471  0.40389924    -0.39500
N214        N  0.35494194  0.52181960  0.40273849    -0.37100
N215        N  0.14789883  0.50813893  0.48728875    -0.38200
N216        N  0.08178984  0.36670536  0.48252288    -0.39800
C217        C  0.68433386  0.86362224  0.42459896    -0.04800
C218        C  0.65617406  0.82588492  0.45881565     0.09400
C219        C  0.67767461  0.81301517  0.49716501    -0.02100
C220        C  0.72687153  0.83854521  0.50235748    -0.00400
C221        C  0.75533837  0.87763456  0.46915961    -0.04000
C222        C  0.73356936  0.88941277  0.42969009     0.03000
C223        C  0.60366830  0.80048596  0.45548255     0.09800
C224        C  0.64887032  0.77387870  0.53211963     0.35700
C225        C  0.76169167  0.92748964  0.39339270     0.39200
C226        C  0.57908827  0.75413452  0.43756015    -0.04400
C227        C  0.52962011  0.72972039  0.43681298     0.02800
C228        C  0.50454385  0.75221288  0.45122958    -0.04000
C229        C  0.52890157  0.79843682  0.46891803    -0.00200
C230        C  0.57825826  0.82228759  0.47191832    -0.02800
C231        C  0.60467356  0.73134025  0.42053602     0.36500
C232        C  0.50281855  0.82110564  0.48427003     0.40100
C233        C  0.50437188  0.68048987  0.42452895     0.39200
C234        C  0.60286484  0.86882679  0.49306735     0.36200
C235        C  0.66241962  0.87591638  0.38403820     0.36800
C236        C  0.74750162  0.82534677  0.54355785     0.40100
N237        N  0.48496947  0.64088461  0.41585749    -0.38000
N238        N  0.62503173  0.71304887  0.40712080    -0.39600
N239        N  0.48192390  0.83917369  0.49648417    -0.37300
N240        N  0.62259471  0.90590663  0.51009517    -0.39700
N241        N  0.62582424  0.74246126  0.55967368    -0.39500
N242        N  0.76369594  0.81454192  0.57642294    -0.37100
N243        N  0.78400794  0.95783712  0.36435122    -0.38200
N244        N  0.64480703  0.88571614  0.35183702    -0.39800
C245        C  0.13904196  0.82713877  0.42760538    -0.04800
C246        C  0.17450130  0.83409603  0.46200011     0.09400
C247        C  0.18475390  0.86515038  0.50281618    -0.02100
C248        C  0.15860346  0.88795382  0.51039396    -0.00400
C249        C  0.12215074  0.88030252  0.47659403    -0.04000
C250        C  0.11323072  0.85040002  0.43451717     0.03000
C251        C  0.19950204  0.80680355  0.45705952     0.09800
C252        C  0.22164865  0.87269205  0.53781702     0.35700
C253        C  0.07815782  0.84417345  0.39753940     0.39200
C254        C  0.24320874  0.82633054  0.43069958    -0.04400
C255        C  0.26779247  0.80142741  0.42879948     0.02800
C256        C  0.24842133  0.75642481  0.45253209    -0.04000
C257        C  0.20391532  0.73642680  0.47747544    -0.00200
C258        C  0.17979391  0.76167582  0.48012186    -0.02800
C259        C  0.26277686  0.87210163  0.40560586     0.36500
C260        C  0.18228331  0.68922450  0.49917874     0.40100
C261        C  0.31365440  0.82271941  0.40369999     0.39200
C262        C  0.13456693  0.74131946  0.50667959     0.36200
C263        C  0.12876627  0.79543273  0.38542287     0.36800
C264        C  0.16802063  0.91748922  0.55455994     0.40100
N265        N  0.35022377  0.83972228  0.38348870    -0.38000
N266        N  0.27821022  0.90854614  0.38543161    -0.39600
N267        N  0.16500016  0.65152498  0.51653085    -0.37300
N268        N  0.09846206  0.72524931  0.52777862    -0.39700
N269        N  0.25113215  0.87866528  0.56561746    -0.39500
N270        N  0.17559283  0.94098074  0.58983878    -0.37100
N271        N  0.05024006  0.83927703  0.36799344    -0.38200
N272        N  0.12051647  0.77000244  0.35188586    -0.39800
C273        C  0.25304601  0.42567072  0.93459837    -0.04800
C274        C  0.20682517  0.39814050  0.95458301     0.09400
C275        C  0.18266549  0.42036956  0.97349845    -0.02100
C276        C  0.20447794  0.46976274  0.97223036    -0.00400
C277        C  0.25043584  0.49729684  0.95176182    -0.04000
C278        C  0.27478520  0.47510335  0.93324345     0.03000
C279        C  0.18344588  0.34563952  0.95677972     0.09800
C280        C  0.13530749  0.39222637  0.99444136     0.35700
C281        C  0.32284787  0.50332293  0.91447585     0.39200
C282        C  0.19182116  0.32283076  0.99797814    -0.04400
C283        C  0.16565913  0.27346100  0.00357157     0.02800
C284        C  0.13096183  0.24633735  0.96758689    -0.04000
C285        C  0.12491689  0.26924433  0.92450771    -0.00200
C286        C  0.15080946  0.31869370  0.91939513    -0.02800
C287        C  0.22659875  0.35042879  0.03545594     0.36500
C288        C  0.09291509  0.24195686  0.88470473     0.40100
C289        C  0.17314948  0.25104090  0.04788605     0.39200
C290        C  0.14352058  0.34213267  0.87599064     0.36200
C291        C  0.27825277  0.40306646  0.91579064     0.36800
C292        C  0.17952348  0.49245838  0.99134247     0.40100
N293        N  0.17918920  0.23318162  0.08318697    -0.38000
N294        N  0.25447323  0.37246741  0.06520906    -0.39600
N295        N  0.06764347  0.22022097  0.85272624    -0.37300
N296        N  0.13778953  0.36103739  0.84149267    -0.39700
N297        N  0.09748615  0.36957196  0.01100642    -0.39500
N298        N  0.15972611  0.51067478  0.00679738    -0.37100
N299        N  0.36126274  0.52581609  0.89956295    -0.38200
N300        N  0.29841897  0.38502861  0.90092031    -0.39800
C301        C  0.67946832  0.86515011  0.00383749    -0.04800
C302        C  0.65990819  0.84184813  0.95788747     0.09400
C303        C  0.68978437  0.84311624  0.91774555    -0.02100
C304        C  0.73881685  0.86599879  0.92426293    -0.00400
C305        C  0.75833269  0.88788930  0.97096252    -0.04000
C306        C  0.72848415  0.88852280  0.01019896     0.03000
C307        C  0.60764686  0.81486667  0.95260613     0.09800
C308        C  0.66992724  0.82071278  0.86976845     0.35700
C309        C  0.74789348  0.91199209  0.05789479     0.39200
C310        C  0.58273953  0.83853565  0.94203225    -0.04400
C311        C  0.53330614  0.81310410  0.93955896     0.02800
C312        C  0.50859878  0.76422029  0.94848213    -0.04000
C313        C  0.53333822  0.74048709  0.95856096    -0.00200
C314        C  0.58275749  0.76562878  0.96035190    -0.02800
C315        C  0.60799732  0.88908770  0.93455722     0.36500
C316        C  0.50752375  0.69006169  0.96699661     0.40100
C317        C  0.50744866  0.83700719  0.92882570     0.39200
C318        C  0.60801574  0.74099746  0.97089979     0.36200
C319        C  0.64886219  0.86401884  0.04511575     0.36800
C320        C  0.76937709  0.86841530  0.88227758     0.40100
N321        N  0.48664384  0.85595316  0.92016191    -0.38000
N322        N  0.62824492  0.92948349  0.92895515    -0.39600
N323        N  0.48671587  0.64979380  0.97378423    -0.37300
N324        N  0.62825879  0.72139713  0.97914201    -0.39700
N325        N  0.65404337  0.80280724  0.83149352    -0.39500
N326        N  0.79390391  0.87072585  0.84873828    -0.37100
N327        N  0.76329515  0.93091576  0.09585319    -0.38200
N328        N  0.62430268  0.86301049  0.07791707    -0.39800
C329        C  0.17639685  0.75743513  0.96501080    -0.04800
C330        C  0.19561557  0.80283531  0.94246241     0.09400
C331        C  0.24018480  0.82349438  0.91747482    -0.02100
C332        C  0.26639309  0.80020909  0.91779890    -0.00400
C333        C  0.24739970  0.75513646  0.94096657    -0.04000
C334        C  0.20173667  0.73333298  0.96312046     0.03000
C335        C  0.17043747  0.83013499  0.94807235     0.09800
C336        C  0.25929600  0.86910391  0.89206435     0.35700
C337        C  0.18052484  0.68554206  0.98299320     0.39200
C338        C  0.18860179  0.86917833  0.98039703    -0.04400
C339        C  0.16530717  0.89497420  0.98627009     0.02800
C340        C  0.12218462  0.88067748  0.96187874    -0.04000
C341        C  0.10368239  0.84132357  0.92992585    -0.00200
C342        C  0.12835415  0.81691288  0.92202878    -0.02800
C343        C  0.23117938  0.88255182  0.00828426     0.36500
C344        C  0.05996391  0.82672472  0.90402547     0.40100
C345        C  0.18547120  0.93579774  0.01855925     0.39200
C346        C  0.11100296  0.77874830  0.88630156     0.36200
C347        C  0.13101587  0.73593669  0.99134707     0.36800
C348        C  0.31375002  0.82347079  0.89632951     0.40100
N349        N  0.20174806  0.96856737  0.04392100    -0.38000
N350        N  0.26522203  0.89328013  0.03033862    -0.39600
N351        N  0.02501463  0.81500370  0.88344764    -0.37300
N352        N  0.09734448  0.74839735  0.85765565    -0.39700
N353        N  0.27437859  0.90553621  0.87195339    -0.39500
N354        N  0.35165350  0.84223895  0.87935932    -0.37100
N355        N  0.16364366  0.64727012  0.99852720    -0.38200
N356        N  0.09478944  0.71878441  0.01233351    -0.39800
C357        C  0.34315670  0.70006269  0.64435749    -0.04800
C358        C  0.33684266  0.65911464  0.66952182     0.09400
C359        C  0.33581567  0.62306920  0.64011213    -0.02100
C360        C  0.33923122  0.62750060  0.58611694    -0.00400
C361        C  0.33482860  0.66349932  0.56049078    -0.04000
C362        C  0.34399516  0.70306852  0.59020834     0.03000
C363        C  0.33477054  0.65608301  0.72702689     0.09800
C364        C  0.33209038  0.58172325  0.66525736     0.35700
C365        C  0.36096813  0.74888601  0.56615832     0.39200
C366        C  0.29441647  0.64940902  0.75388874    -0.04400
C367        C  0.29424014  0.65203430  0.80793768     0.02800
C368        C  0.33551628  0.66347022  0.83567575    -0.04000
C369        C  0.37083079  0.65867008  0.80897222    -0.00200
C370        C  0.37262293  0.65943300  0.75490070    -0.02800
C371        C  0.25253391  0.63833823  0.72571023     0.36500
C372        C  0.40057886  0.64513303  0.83600144     0.40100
C373        C  0.24989081  0.63766489  0.83443611     0.39200
C374        C  0.41324518  0.66297704  0.72813454     0.36200
C375        C  0.35050391  0.73983254  0.67450460     0.36800
C376        C  0.35538436  0.60013684  0.55841828     0.40100
N377        N  0.21420343  0.62595250  0.85502793    -0.38000
N378        N  0.21913945  0.62917952  0.70308783    -0.39600
N379        N  0.42401633  0.63368578  0.85715457    -0.37300
N380        N  0.44560137  0.66563290  0.70686208    -0.39700
N381        N  0.32918831  0.54874428  0.68524041    -0.39500
N382        N  0.36909920  0.57885723  0.53660148    -0.37100
N383        N  0.37490797  0.78583477  0.54774453    -0.38200
N384        N  0.35638796  0.77133170  0.69890220    -0.39800
C385        C  0.29333778  0.66408527  0.25414820    -0.04800
C386        C  0.33380287  0.67171460  0.22659311     0.09400
C387        C  0.37080549  0.67219467  0.25355963    -0.02100
C388        C  0.36678643  0.66437873  0.30700032    -0.00400
C389        C  0.33133335  0.66679286  0.33591285    -0.04000
C390        C  0.29144209  0.66023576  0.30843395     0.03000
C391        C  0.33507330  0.67264060  0.16897697     0.09800
C392        C  0.41257953  0.67912464  0.22619626     0.35700
C393        C  0.24651665  0.64339480  0.33467805     0.39200
C394        C  0.34337208  0.71306816  0.14087592    -0.04400
C395        C  0.34622033  0.71402317  0.08655712     0.02800
C396        C  0.33811070  0.67333970  0.05970015    -0.04000
C397        C  0.34036686  0.63786713  0.08894767    -0.00200
C398        C  0.33343726  0.63484725  0.14252127    -0.02800
C399        C  0.35030234  0.75410971  0.16805229     0.36500
C400        C  0.35863556  0.61013291  0.06619998     0.40100
C401        C  0.36378953  0.75868042  0.05950998     0.39200
C402        C  0.32542857  0.59294998  0.17047518     0.36200
C403        C  0.25311933  0.65870184  0.22640759     0.36800
C404        C  0.39184925  0.64310317  0.32929863     0.40100
N405        N  0.37837757  0.79459808  0.03832461    -0.38000
N406        N  0.35576260  0.78674990  0.18990395    -0.39600
N407        N  0.37372020  0.58827704  0.04847440    -0.37300
N408        N  0.31872424  0.55946097  0.19281863    -0.39700
N409        N  0.44597878  0.68485802  0.20441768    -0.39500
N410        N  0.41092857  0.62471058  0.34612001    -0.37100
N411        N  0.21042619  0.62962186  0.35522272    -0.38200
N412        N  0.22114807  0.65449168  0.20410447    -0.39800
C413        C  0.75906947  0.18027495  0.56829440    -0.04800
C414        C  0.80351434  0.20077578  0.54347588     0.09400
C415        C  0.82253753  0.24555028  0.51952841    -0.02100
C416        C  0.79685672  0.26936115  0.51977135    -0.00400
C417        C  0.75194721  0.24844656  0.54376617    -0.04000
C418        C  0.73321226  0.20381171  0.56803576     0.03000
C419        C  0.82875111  0.17367265  0.53939510     0.09800
C420        C  0.86843951  0.26688354  0.49439228     0.35700
C421        C  0.68640855  0.18128886  0.59096835     0.39200
C422        C  0.81814443  0.14181583  0.49934533    -0.04400
C423        C  0.84290259  0.11741746  0.49366674     0.02800
C424        C  0.87808909  0.12404157  0.52877234    -0.04000
C425        C  0.88725613  0.15464664  0.57018790    -0.00200
C426        C  0.86277569  0.17946613  0.57529899    -0.02800
C427        C  0.78153946  0.13423978  0.46388630     0.36500
C428        C  0.92094770  0.15968718  0.60845149     0.40100
C429        C  0.83329035  0.08708323  0.45023044     0.39200
C430        C  0.87213569  0.21061437  0.61784192     0.36200
C431        C  0.73983578  0.13463671  0.59361615     0.36800
C432        C  0.81685044  0.31568883  0.49607684     0.40100
N433        N  0.82554981  0.06300264  0.41547162    -0.38000
N434        N  0.75207260  0.12811425  0.43599060    -0.39600
N435        N  0.94774171  0.16353615  0.63900081    -0.37300
N436        N  0.87950811  0.23533572  0.65191238    -0.39700
N437        N  0.90511124  0.28386549  0.47442944    -0.39500
N438        N  0.83273412  0.35264678  0.47703591    -0.37100
N439        N  0.64899163  0.16326123  0.60919868    -0.38200
N440        N  0.72469654  0.09826009  0.61386131    -0.39800
C441        C  0.82278298  0.58183085  0.52752666    -0.04800
C442        C  0.80162796  0.60499597  0.55159961     0.09400
C443        C  0.75716302  0.57829050  0.57612442    -0.02100
C444        C  0.73351222  0.52883896  0.57540338    -0.00400
C445        C  0.75489641  0.50561980  0.55194527    -0.04000
C446        C  0.79981836  0.53234604  0.52842725     0.03000
C447        C  0.82538068  0.65753435  0.54927176     0.09800
C448        C  0.73565481  0.60181110  0.60185683     0.35700
C449        C  0.82271885  0.50880865  0.50597335     0.39200
C450        C  0.80926259  0.67990652  0.51539872    -0.04400
C451        C  0.83227005  0.72929694  0.51183552     0.02800
C452        C  0.87200414  0.75686214  0.54180401    -0.04000
C453        C  0.88795365  0.73446527  0.57594449    -0.00200
C454        C  0.86443682  0.68495424  0.57998684    -0.02800
C455        C  0.76941091  0.65196502  0.48341366     0.36500
C456        C  0.92798958  0.76234857  0.60762189     0.40100
C457        C  0.81614565  0.75168276  0.47551611     0.39200
C458        C  0.88021223  0.66205346  0.61590158     0.36200
C459        C  0.86789786  0.60901986  0.50111491     0.36800
C460        C  0.68624164  0.50178253  0.59681517     0.40100
N461        N  0.80336825  0.76957180  0.44654801    -0.38000
N462        N  0.73754563  0.62964149  0.45804152    -0.39600
N463        N  0.95992631  0.78461361  0.63292645    -0.37300
N464        N  0.89268309  0.64361884  0.64449738    -0.39700
N465        N  0.71853861  0.62061441  0.62240141    -0.39500
N466        N  0.64843148  0.48007090  0.61372727    -0.37100
N467        N  0.84102835  0.49000606  0.48808237    -0.38200
N468        N  0.90387016  0.63084525  0.48003327    -0.39800
C469        C  0.30981991  0.15196824  0.59433495    -0.04800
C470        C  0.33888554  0.18171679  0.55385320     0.09400
C471        C  0.31864928  0.18452597  0.50764882    -0.02100
C472        C  0.26995246  0.15625541  0.50089697    -0.00400
C473        C  0.24069427  0.12512437  0.54072418    -0.04000
C474        C  0.26089368  0.12340234  0.58769668     0.03000
C475        C  0.39129189  0.20692885  0.55730954     0.09800
C476        C  0.34836803  0.21613932  0.46656931     0.35700
C477        C  0.23142206  0.09259925  0.62933660     0.39200
C478        C  0.41618468  0.18555593  0.53819766    -0.04400
C479        C  0.46565446  0.21067249  0.53578309     0.02800
C480        C  0.49065474  0.25730945  0.55246272    -0.04000
C481        C  0.46588983  0.27820415  0.57313274    -0.00200
C482        C  0.41627610  0.25315150  0.57541435    -0.02800
C483        C  0.39066147  0.13768407  0.52067596     0.36500
C484        C  0.49172379  0.32587862  0.59091061     0.40100
C485        C  0.49104094  0.18822138  0.51727041     0.39200
C486        C  0.39085802  0.27496214  0.59576471     0.36200
C487        C  0.33042482  0.15094217  0.64276125     0.36800
C488        C  0.25053633  0.15742805  0.45160998     0.40100
N489        N  0.51116685  0.17010000  0.50256251    -0.38000
N490        N  0.37009156  0.09946592  0.50682356    -0.39600
N491        N  0.51254291  0.36395807  0.60513903    -0.37300
N492        N  0.37051665  0.29230485  0.61210629    -0.39700
N493        N  0.37220377  0.24150163  0.43399783    -0.39500
N494        N  0.23509992  0.15822054  0.41224619    -0.37100
N495        N  0.20796919  0.06793624  0.66256971    -0.38200
N496        N  0.34691544  0.15049447  0.68152299    -0.39800
C497        C  0.82033161  0.14321079  0.01139725    -0.04800
C498        C  0.83407677  0.17774575  0.04912257     0.09400
C499        C  0.87206050  0.18686837  0.08084512    -0.02100
C500        C  0.89652363  0.16207870  0.07431765    -0.00400
C501        C  0.88163150  0.12639188  0.03776998    -0.04000
C502        C  0.84353042  0.11725885  0.00620213     0.03000
C503        C  0.80804725  0.20410228  0.05494604     0.09800
C504        C  0.88513141  0.22093775  0.12098724     0.35700
C505        C  0.82909795  0.08209154  0.96699124     0.39200
C506        C  0.76195416  0.18118580  0.07625700    -0.04400
C507        C  0.73504634  0.20367755  0.07570015     0.02800
C508        C  0.75438529  0.24964099  0.05506950    -0.04000
C509        C  0.80117666  0.27344736  0.03619849    -0.00200
C510        C  0.82782986  0.25066718  0.03563203    -0.02800
C511        C  0.74208673  0.13414017  0.09812580     0.36500
C512        C  0.82186524  0.32170259  0.01802898     0.40100
C513        C  0.68675151  0.17893301  0.09437304     0.39200
C514        C  0.87527414  0.27482103  0.01428087     0.36200
C515        C  0.78228846  0.13456706  0.97762132     0.36800
C516        C  0.93659452  0.17286920  0.10559806     0.40100
N517        N  0.64812665  0.15913507  0.10914419    -0.38000
N518        N  0.72640864  0.09660818  0.11554499    -0.39600
N519        N  0.83817789  0.36028141  0.00372458    -0.37300
N520        N  0.91319909  0.29420753  0.99737637    -0.39700
N521        N  0.89529326  0.24795110  0.15319649    -0.39500
N522        N  0.96879501  0.18171241  0.13030812    -0.37100
N523        N  0.81766888  0.05409483  0.93570106    -0.38200
N524        N  0.75186887  0.12773368  0.95085869    -0.39800
C525        C  0.76238170  0.57867974  0.06104411    -0.04800
C526        C  0.80684107  0.60322465  0.03622752     0.09400
C527        C  0.82571672  0.57786182  0.01233744    -0.02100
C528        C  0.80001134  0.52820746  0.01299349    -0.00400
C529        C  0.75542770  0.50364254  0.03781891    -0.04000
C530        C  0.73669721  0.52920854  0.06155375     0.03000
C531        C  0.83251025  0.65588531  0.03351867     0.09800
C532        C  0.87172784  0.60296923  0.98745748     0.35700
C533        C  0.69007122  0.50449974  0.08495238     0.39200
C534        C  0.86041023  0.68225800  0.07446981    -0.04400
C535        C  0.88287445  0.73181882  0.07261344     0.02800
C536        C  0.87709330  0.75541461  0.02996701    -0.04000
C537        C  0.84844215  0.72871069  0.98938727    -0.00200
C538        C  0.82668620  0.67928710  0.99101048    -0.02800
C539        C  0.86593424  0.65820352  0.11849897     0.36500
C540        C  0.84266636  0.75207098  0.94482433     0.40100
C541        C  0.91113310  0.75842046  0.11517244     0.39200
C542        C  0.79858308  0.65230333  0.94854812     0.36200
C543        C  0.74298240  0.60457730  0.08582249     0.36800
C544        C  0.81968939  0.50231673  0.98893464     0.40100
N545        N  0.93361124  0.77955664  0.14921396    -0.38000
N546        N  0.87019415  0.63887670  0.15360472    -0.39600
N547        N  0.83802092  0.77077982  0.90938167    -0.37300
N548        N  0.77635552  0.63069338  0.91460954    -0.39700
N549        N  0.90851219  0.62306101  0.96772667    -0.39500
N550        N  0.83532153  0.48163938  0.96949784    -0.37100
N551        N  0.65281848  0.48475074  0.10360146    -0.38200
N552        N  0.72778023  0.62545115  0.10566574    -0.39800
C553        C  0.41501447  0.22980227  0.03325320    -0.04800
C554        C  0.39081206  0.18288762  0.05175253     0.09400
C555        C  0.41615116  0.16211330  0.07098149    -0.02100
C556        C  0.46562587  0.18839311  0.07191527    -0.00400
C557        C  0.48982622  0.23483097  0.05202691    -0.04000
C558        C  0.46439898  0.25545728  0.03274238     0.03000
C559        C  0.33861521  0.15520728  0.04861243     0.09800
C560        C  0.39127193  0.11355412  0.08882686     0.35700
C561        C  0.48924992  0.30336474  0.01287622     0.39200
C562        C  0.31804073  0.12954042  0.00428158    -0.04400
C563        C  0.26928813  0.10847048  0.99778629     0.02800
C564        C  0.24070413  0.11303664  0.03574654    -0.04000
C565        C  0.26129146  0.13765381  0.08088368    -0.00200
C566        C  0.31010605  0.15834997  0.08741065    -0.02800
C567        C  0.34744320  0.12624767  0.96447953     0.36500
C568        C  0.23236641  0.14173566  0.12064583     0.40100
C569        C  0.24917534  0.08462352  0.95041883     0.39200
C570        C  0.33131162  0.18359571  0.13365722     0.36200
C571        C  0.38889241  0.25147383  0.01452144     0.36800
C572        C  0.49189237  0.16757647  0.09223008     0.40100
N573        N  0.23310532  0.06572924  0.91262994    -0.38000
N574        N  0.37090480  0.12366707  0.93272954    -0.39600
N575        N  0.20931031  0.14515715  0.15226560    -0.37300
N576        N  0.34831485  0.20365391  0.17058521    -0.39700
N577        N  0.37130735  0.07468750  0.10272406    -0.39500
N578        N  0.51294459  0.15109828  0.10871499    -0.37100
N579        N  0.50902335  0.34154402  0.99675134    -0.38200
N580        N  0.36778375  0.26856053  0.99989514    -0.39800
C581        C  0.65448473  0.28247516  0.85678607    -0.04800
C582        C  0.65301111  0.31760155  0.82670986     0.09400
C583        C  0.64635755  0.35169228  0.85143203    -0.02100
C584        C  0.64675139  0.35387229  0.90560506    -0.00400
C585        C  0.65637784  0.32337311  0.93570558    -0.04000
C586        C  0.65168863  0.28312719  0.91078740     0.03000
C587        C  0.65716303  0.31822831  0.76915809     0.09800
C588        C  0.63795446  0.38382720  0.82091639     0.35700
C589        C  0.63626125  0.23947209  0.93925197     0.39200
C590        C  0.62162000  0.28283936  0.73995299    -0.04400
C591        C  0.62673442  0.28378701  0.68606592     0.02800
C592        C  0.66307629  0.32421192  0.66001168    -0.04000
C593        C  0.70232303  0.35458306  0.68962102    -0.00200
C594        C  0.69849410  0.35289340  0.74378201    -0.02800
C595        C  0.57961021  0.24543315  0.76505786     0.36500
C596        C  0.74843248  0.38264025  0.66564861     0.40100
C597        C  0.59852454  0.24073699  0.65876864     0.39200
C598        C  0.73753283  0.38630965  0.77366912     0.36200
C599        C  0.65854067  0.24531416  0.83236576     0.36800
C600        C  0.63177583  0.38373487  0.92976204     0.40100
N601        N  0.57638030  0.20627702  0.63707442    -0.38000
N602        N  0.54600677  0.21550993  0.78487158    -0.39600
N603        N  0.78551725  0.40479624  0.64701997    -0.37300
N604        N  0.76843255  0.41295603  0.79777219    -0.39700
N605        N  0.63114965  0.40928293  0.79640023    -0.39500
N606        N  0.61938827  0.40739717  0.94863307    -0.37100
N607        N  0.62322896  0.20430851  0.96157487    -0.38200
N608        N  0.66168640  0.21560505  0.81293004    -0.39800
C609        C  0.62826119  0.34139568  0.24123804    -0.04800
C610        C  0.66469947  0.34094990  0.26857136     0.09400
C611        C  0.70439792  0.34642774  0.24120182    -0.02100
C612        C  0.70567555  0.34822239  0.18695542    -0.00400
C613        C  0.66506018  0.33916386  0.15942425    -0.04000
C614        C  0.63010828  0.34375386  0.18709673     0.03000
C615        C  0.66285295  0.33857392  0.32621171     0.09800
C616        C  0.74448960  0.35151826  0.26895484     0.35700
C617        C  0.60032830  0.35782087  0.16102939     0.39200
C618        C  0.65111265  0.29632349  0.35263184    -0.04400
C619        C  0.64860979  0.29394662  0.40694342     0.02800
C620        C  0.65984971  0.33462382  0.43559199    -0.04000
C621        C  0.66101487  0.37275256  0.40811195    -0.00200
C622        C  0.66775490  0.37690759  0.35437883    -0.02800
C623        C  0.64021420  0.25489581  0.32371510     0.36500
C624        C  0.64594749  0.40236090  0.43266658     0.40100
C625        C  0.62914960  0.24837424  0.43244678     0.39200
C626        C  0.67876002  0.42043791  0.32798628     0.36200
C627        C  0.58919984  0.34038337  0.26890552     0.36800
C628        C  0.75056673  0.36560786  0.16040598     0.40100
N629        N  0.61326113  0.21181779  0.45247154    -0.38000
N630        N  0.63139699  0.22189057  0.30051391    -0.39600
N631        N  0.63329732  0.42574866  0.45170101    -0.37300
N632        N  0.68783273  0.45517924  0.30678625    -0.39700
N633        N  0.77644243  0.35547016  0.29108391    -0.39500
N634        N  0.78654962  0.37993544  0.13942221    -0.37100
N635        N  0.57668789  0.36946324  0.14067502    -0.38200
N636        N  0.55829594  0.33988434  0.29116427    -0.39800
loop_ 
_geom_bond_atom_site_label_1 
_geom_bond_atom_site_label_2 
_geom_bond_distance 
_geom_bond_site_symmetry_2 
_ccdc_geom_bond_type 
C1            C3   1.547       .  S
C1            C5   1.535       .  S
C1            C4   1.545       .  S
C1          C613   1.552       .  S
C2            C6   1.553   1_556  S
C2            C8   1.547   1_556  S
C2            C7   1.532   1_556  S
C2          C585   1.552       .  S
C3           C11   1.381       .  A
C3            C6   1.400       .  A
C4           C15   1.384       .  A
C4            C7   1.392       .  A
C5           C19   1.375       .  A
C5            C8   1.394       .  A
C6            C9   1.382       .  A
C7           C13   1.375       .  A
C8           C16   1.386   1_554  A
C9           N10   1.357       .  A
C9           H22   1.082   1_554  S
N10          C11   1.355       .  A
N10         C508   1.443       .  S
C11          H12   1.081       .  S
C13          N14   1.355       .  A
C13          H23   1.082   1_554  S
N14          C15   1.357       .  A
N14         C557   1.439       .  S
C15          H21   1.083       .  S
C16          N17   1.361   1_556  A
C16          H18   1.083       .  S
N17          C19   1.357       .  A
N17         C529   1.447       .  S
C19          H20   1.082       .  S
C24          C26   1.546       .  S
C24          C28   1.537       .  S
C24          C27   1.555       .  S
C24         C620   1.553       .  S
C25          C29   1.532       .  S
C25          C31   1.544       .  S
C25          C30   1.546       .  S
C25         C592   1.551       .  S
C26          C34   1.384       .  A
C26          C29   1.393       .  A
C27          C38   1.383       .  A
C27          C30   1.401       .  A
C28          C42   1.380       .  A
C28          C31   1.392       .  A
C29          C32   1.374       .  A
C30          C36   1.380       .  A
C31          C39   1.381       .  A
C32          N33   1.356       .  A
C32          H45   1.082       .  S
N33          C34   1.360       .  A
N33         C417   1.444       .  S
C34          H35   1.083       .  S
C36          N37   1.356       .  A
C36          H46   1.082       .  S
N37          C38   1.356       .  A
N37         C445   1.444       .  S
C38          H44   1.081       .  S
C39          N40   1.355       .  A
C39          H41   1.083       .  S
N40          C42   1.359       .  A
N40         C480   1.442       .  S
C42          H43   1.082       .  S
C47          C49   1.551   1_554  S
C47          C51   1.549   1_554  S
C47          C50   1.534   1_554  S
C47         C396   1.551       .  S
C48          C52   1.550       .  S
C48          C54   1.531       .  S
C48          C53   1.546       .  S
C48         C368   1.549       .  S
C49          C57   1.381       .  A
C49          C52   1.401       .  A
C50          C61   1.377       .  A
C50          C53   1.394       .  A
C51          C65   1.386       .  A
C51          C54   1.390       .  A
C52          C55   1.383       .  A
C53          C59   1.384       .  A
C54          C62   1.377       .  A
C55          N56   1.358       .  A
C55          H68   1.082       .  S
N56          C57   1.359       .  A
N56         C333   1.446       .  S
C57          H58   1.082   1_556  S
C59          N60   1.356       .  A
C59          H69   1.083       .  S
N60          C61   1.355       .  A
N60         C312   1.438       .  S
C61          H67   1.082   1_556  S
C62          N63   1.355       .  A
C62          H64   1.082       .  S
N63          C65   1.358       .  A
N63         C277   1.443       .  S
C65          H66   1.083   1_556  S
C70          C72   1.549       .  S
C70          C74   1.551       .  S
C70          C73   1.534       .  S
C70         C389   1.551       .  S
C71          C75   1.551       .  S
C71          C77   1.530       .  S
C71          C76   1.548       .  S
C71         C361   1.551       .  S
C72          C80   1.381       .  A
C72          C75   1.400       .  A
C73          C84   1.377       .  A
C73          C76   1.394       .  A
C74          C88   1.386       .  A
C74          C77   1.393       .  A
C75          C78   1.382       .  A
C76          C82   1.384       .  A
C77          C85   1.376       .  A
C78          N79   1.359       .  A
C78          H91   1.082       .  S
N79          C80   1.357       .  A
N79         C256   1.448       .  S
C80          H81   1.082       .  S
C82          N83   1.357       .  A
C82          H92   1.082       .  S
N83          C84   1.356       .  A
N83         C193   1.441       .  S
C84          H90   1.082       .  S
C85          N86   1.353       .  A
C85          H87   1.082       .  S
N86          C88   1.358       .  A
N86         C228   1.439       .  S
C88          H89   1.083       .  S
O93         Mg95   2.142       .  S
O93        Mg101   2.153   1_564  S
O93         C128   1.238       .  S
C94         H133   1.079       .  S
C94         O107   1.236       .  S
C94         O131   1.269       .  A
Mg95        O124   2.158   1_454  S
Mg95        O139   2.332   1_554  S
Mg95        O135   2.255   1_455  S
Mg95        O106   2.306   1_455  S
O96        Mg138   2.155   1_454  S
O96        Mg121   2.139       .  S
O96         C117   1.236       .  S
O97         C128   1.272   1_545  A
O97        Mg121   2.299       .  S
C98         O100   1.275       .  A
C98         O112   1.275       .  A
C98         C305   1.489       .  S
O99         C127   1.270   1_455  A
O99        Mg101   2.296   1_565  S
O100       Mg132   2.279       .  S
Mg101       O107   2.138       .  S
Mg101       O115   2.248   1_545  S
Mg101       O103   2.283   1_556  S
C102        O140   1.274       .  A
C102        O108   1.277       .  A
C102        C501   1.488       .  S
O103        C110   1.272       .  A
H104        C117   1.079       .  S
C105        H130   1.078       .  S
C105        O119   1.237       .  S
C105        O120   1.272   1_545  A
O106        C129   1.271       .  A
O107       Mg121   2.154   1_556  S
O108       Mg138   2.322   1_554  S
C109        O122   1.276       .  A
C109        O114   1.275       .  A
C109        C284   1.495       .  S
C110        O137   1.271       .  A
C110        C564   1.485       .  S
Mg111       O118   2.167       .  S
Mg111       O119   2.154   1_564  S
Mg111       O112   2.303   1_554  S
Mg111       O113   2.296   1_565  S
Mg111       O140   2.275   1_565  S
O113        C117   1.270   1_655  A
O114       Mg121   2.305   1_556  S
O115        C134   1.270       .  A
O116        C136   1.281       .  A
O116       Mg132   2.340   1_554  S
O118       Mg132   2.164   1_554  S
O118        C129   1.236       .  S
O119       Mg138   2.161       .  S
O120       Mg132   2.305       .  S
Mg121       O137   2.264       .  S
O122       Mg138   2.285   1_455  S
H123        C128   1.078       .  S
O124       Mg132   2.147       .  S
O124        C127   1.236       .  S
H125        C127   1.079       .  S
H126        C129   1.079       .  S
O131       Mg138   2.294   1_455  S
C134        O139   1.277       .  A
C134        C340   1.491       .  S
O135        C136   1.272       .  A
C136        C536   1.493       .  S
O141       Mg143   2.155       .  S
O141       Mg149   2.161   1_655  S
O141        C176   1.237       .  S
C142        H181   1.080       .  S
C142        O155   1.237       .  S
C142        O179   1.271       .  A
Mg143       O172   2.151   1_545  S
Mg143       O187   2.314       .  S
Mg143       O183   2.280   1_545  S
Mg143       O154   2.306   1_545  S
O144       Mg186   2.157   1_545  S
O144       Mg169   2.133       .  S
O144        C165   1.236       .  S
O145        C176   1.271   1_455  A
O145       Mg169   2.300       .  S
C146        O148   1.271       .  A
C146        O160   1.277       .  A
C146        C452   1.487       .  S
O147        C175   1.271   1_545  A
O147       Mg149   2.303   1_655  S
O148       Mg180   2.258       .  S
Mg149       O155   2.143       .  S
Mg149       O163   2.266   1_455  S
Mg149       O151   2.319       .  S
C150        O188   1.275       .  A
C150        O156   1.276       .  A
C150        C249   1.495       .  S
O151        C158   1.276       .  A
H152        C165   1.079       .  S
C153        H178   1.079   1_655  S
C153        O167   1.237   1_655  S
C153        O168   1.271       .  A
O154        C177   1.272       .  A
O155       Mg169   2.157       .  S
O156       Mg186   2.308       .  S
C157        O170   1.274       .  A
C157        O162   1.274       .  A
C157        C473   1.492       .  S
C158        O185   1.270       .  A
C158        C200   1.481       .  S
Mg159       O166   2.156       .  S
Mg159       O167   2.159   1_655  S
Mg159       O160   2.320       .  S
Mg159       O161   2.292   1_655  S
Mg159       O188   2.275   1_655  S
O161        C165   1.269   1_565  A
O162       Mg169   2.296       .  S
O163        C182   1.273       .  A
O164        C184   1.275       .  A
O164       Mg180   2.309       .  S
O166       Mg180   2.149       .  S
O166        C177   1.236       .  S
O167       Mg186   2.153       .  S
O168       Mg180   2.300       .  S
Mg169       O185   2.256       .  S
O170       Mg186   2.289   1_545  S
H171        C176   1.080       .  S
O172       Mg180   2.150       .  S
O172        C175   1.236       .  S
H173        C175   1.079       .  S
H174        C177   1.079       .  S
O179       Mg186   2.298   1_545  S
C182        O187   1.277       .  A
C182        C424   1.493       .  S
O183        C184   1.274       .  A
C184        C221   1.500       .  S
C189        C190   1.414       .  A
C189        C194   1.411       .  A
C189        C207   1.450       .  S
C190        C191   1.413       .  A
C190        C195   1.501       .  S
C191        C192   1.412       .  A
C191        C196   1.450       .  S
C192        C193   1.411       .  A
C192        C208   1.449       .  S
C193        C194   1.408       .  A
C194        C197   1.448       .  S
C195        C198   1.414       .  A
C195        C202   1.412       .  A
C196        N213   1.157       .  T
C197        N215   1.157       .  T
C198        C199   1.415       .  A
C198        C203   1.450       .  S
C199        C200   1.411       .  A
C199        C205   1.450       .  S
C200        C201   1.411       .  A
C201        C202   1.408       .  A
C201        C204   1.452       .  S
C202        C206   1.451       .  S
C203        N210   1.157       .  T
C204        N211   1.157       .  T
C205        N209   1.157       .  T
C206        N212   1.157       .  T
C207        N216   1.157       .  T
C208        N214   1.157       .  T
C217        C218   1.411       .  A
C217        C222   1.413       .  A
C217        C235   1.451       .  S
C218        C219   1.411       .  A
C218        C223   1.501       .  S
C219        C220   1.412       .  A
C219        C224   1.452       .  S
C220        C221   1.422       .  A
C220        C236   1.452       .  S
C221        C222   1.418       .  A
C222        C225   1.451       .  S
C223        C226   1.413       .  A
C223        C230   1.415       .  A
C224        N241   1.157       .  T
C225        N243   1.157       .  T
C226        C227   1.411       .  A
C226        C231   1.451       .  S
C227        C228   1.409       .  A
C227        C233   1.447       .  S
C228        C229   1.407       .  A
C229        C230   1.411       .  A
C229        C232   1.448       .  S
C230        C234   1.450       .  S
C231        N238   1.157       .  T
C232        N239   1.157       .  T
C233        N237   1.157       .  T
C234        N240   1.157       .  T
C235        N244   1.157       .  T
C236        N242   1.158       .  T
C245        C246   1.410       .  A
C245        C250   1.412       .  A
C245        C263   1.450       .  S
C246        C247   1.410       .  A
C246        C251   1.498       .  S
C247        C248   1.412       .  A
C247        C252   1.451       .  S
C248        C249   1.419       .  A
C248        C264   1.452       .  S
C249        C250   1.417       .  A
C250        C253   1.451       .  S
C251        C254   1.411       .  A
C251        C258   1.410       .  A
C252        N269   1.157       .  T
C253        N271   1.157       .  T
C254        C255   1.413       .  A
C254        C259   1.450       .  S
C255        C256   1.415       .  A
C255        C261   1.449       .  S
C256        C257   1.414       .  A
C257        C258   1.411       .  A
C257        C260   1.449       .  S
C258        C262   1.451       .  S
C259        N266   1.157       .  T
C260        N267   1.157       .  T
C261        N265   1.157       .  T
C262        N268   1.157       .  T
C263        N272   1.157       .  T
C264        N270   1.158       .  T
C273        C274   1.411       .  A
C273        C278   1.412       .  A
C273        C291   1.450       .  S
C274        C275   1.413       .  A
C274        C279   1.500       .  S
C275        C276   1.411       .  A
C275        C280   1.450       .  S
C276        C277   1.409       .  A
C276        C292   1.448       .  S
C277        C278   1.413       .  A
C278        C281   1.449       .  S
C279        C282   1.410       .  A
C279        C286   1.411       .  A
C280        N297   1.157   1_556  T
C281        N299   1.157       .  T
C282        C283   1.412   1_556  A
C282        C287   1.451   1_556  S
C283        C284   1.419   1_554  A
C283        C289   1.452       .  S
C284        C285   1.415       .  A
C285        C286   1.413       .  A
C285        C288   1.450       .  S
C286        C290   1.450       .  S
C287        N294   1.157       .  T
C288        N295   1.157       .  T
C289        N293   1.158       .  T
C290        N296   1.157       .  T
C291        N300   1.157       .  T
C292        N298   1.157   1_556  T
C301        C302   1.411   1_554  A
C301        C306   1.411       .  A
C301        C319   1.451       .  S
C302        C303   1.412       .  A
C302        C307   1.499       .  S
C303        C304   1.413       .  A
C303        C308   1.450       .  S
C304        C305   1.413       .  A
C304        C320   1.450       .  S
C305        C306   1.416   1_556  A
C306        C309   1.451       .  S
C307        C310   1.414       .  A
C307        C314   1.413       .  A
C308        N325   1.157       .  T
C309        N327   1.157       .  T
C310        C311   1.412       .  A
C310        C315   1.449       .  S
C311        C312   1.407       .  A
C311        C317   1.448       .  S
C312        C313   1.408       .  A
C313        C314   1.410       .  A
C313        C316   1.449       .  S
C314        C318   1.450       .  S
C315        N322   1.157       .  T
C316        N323   1.157       .  T
C317        N321   1.157       .  T
C318        N324   1.157       .  T
C319        N328   1.157       .  T
C320        N326   1.157       .  T
C329        C330   1.414       .  A
C329        C334   1.412       .  A
C329        C347   1.450       .  S
C330        C331   1.415       .  A
C330        C335   1.505       .  S
C331        C332   1.413       .  A
C331        C336   1.451       .  S
C332        C333   1.412       .  A
C332        C348   1.449       .  S
C333        C334   1.412       .  A
C334        C337   1.449       .  S
C335        C338   1.413       .  A
C335        C342   1.415       .  A
C336        N353   1.157       .  T
C337        N355   1.157       .  T
C338        C339   1.410       .  A
C338        C343   1.452   1_556  S
C339        C340   1.417       .  A
C339        C345   1.453   1_556  S
C340        C341   1.414       .  A
C341        C342   1.416       .  A
C341        C344   1.450       .  S
C342        C346   1.450       .  S
C343        N350   1.157       .  T
C344        N351   1.157       .  T
C345        N349   1.158       .  T
C346        N352   1.157       .  T
C347        N356   1.157   1_556  T
C348        N354   1.157       .  T
C357        C358   1.408       .  A
C357        C362   1.413       .  A
C357        C375   1.452       .  S
C358        C359   1.409       .  A
C358        C363   1.499       .  S
C359        C360   1.410       .  A
C359        C364   1.451       .  S
C360        C361   1.424       .  A
C360        C376   1.451       .  S
C361        C362   1.425       .  A
C362        C365   1.450       .  S
C363        C366   1.408       .  A
C363        C370   1.409       .  A
C364        N381   1.157       .  T
C365        N383   1.158       .  T
C366        C367   1.413       .  A
C366        C371   1.452       .  S
C367        C368   1.427       .  A
C367        C373   1.451       .  S
C368        C369   1.424       .  A
C369        C370   1.409       .  A
C369        C372   1.451       .  S
C370        C374   1.451       .  S
C371        N378   1.157       .  T
C372        N379   1.158       .  T
C373        N377   1.158       .  T
C374        N380   1.157       .  T
C375        N384   1.157       .  T
C376        N382   1.158       .  T
C385        C386   1.410       .  A
C385        C390   1.417       .  A
C385        C403   1.451       .  S
C386        C387   1.409       .  A
C386        C391   1.501       .  S
C387        C388   1.405       .  A
C387        C392   1.452       .  S
C388        C389   1.417       .  A
C388        C404   1.447       .  S
C389        C390   1.426       .  A
C390        C393   1.450       .  S
C391        C394   1.410       .  A
C391        C398   1.409       .  A
C392        N409   1.157       .  T
C393        N411   1.158       .  T
C394        C395   1.417       .  A
C394        C399   1.451       .  S
C395        C396   1.425       .  A
C395        C401   1.450       .  S
C396        C397   1.420       .  A
C397        C398   1.406       .  A
C397        C400   1.451       .  S
C398        C402   1.452       .  S
C399        N406   1.157       .  T
C400        N407   1.158       .  T
C401        N405   1.158       .  T
C402        N408   1.157       .  T
C403        N412   1.157       .  T
C404        N410   1.156       .  T
C413        C414   1.410       .  A
C413        C418   1.410       .  A
C413        C431   1.450       .  S
C414        C415   1.412       .  A
C414        C419   1.498       .  S
C415        C416   1.413       .  A
C415        C420   1.450       .  S
C416        C417   1.412       .  A
C416        C432   1.449       .  S
C417        C418   1.413       .  A
C418        C421   1.449       .  S
C419        C422   1.410       .  A
C419        C426   1.410       .  A
C420        N437   1.157       .  T
C421        N439   1.157       .  T
C422        C423   1.411       .  A
C422        C427   1.451       .  S
C423        C424   1.418       .  A
C423        C429   1.451       .  S
C424        C425   1.417       .  A
C425        C426   1.413       .  A
C425        C428   1.451       .  S
C426        C430   1.450       .  S
C427        N434   1.157       .  T
C428        N435   1.157       .  T
C429        N433   1.157       .  T
C430        N436   1.157       .  T
C431        N440   1.157       .  T
C432        N438   1.157       .  T
C441        C442   1.413       .  A
C441        C446   1.412       .  A
C441        C459   1.450       .  S
C442        C443   1.412       .  A
C442        C447   1.500       .  S
C443        C444   1.411       .  A
C443        C448   1.450       .  S
C444        C445   1.413       .  A
C444        C460   1.449       .  S
C445        C446   1.412       .  A
C446        C449   1.449       .  S
C447        C450   1.411       .  A
C447        C454   1.413       .  A
C448        N465   1.157       .  T
C449        N467   1.157       .  T
C450        C451   1.410       .  A
C450        C455   1.451       .  S
C451        C452   1.416       .  A
C451        C457   1.452       .  S
C452        C453   1.413       .  A
C453        C454   1.413       .  A
C453        C456   1.450       .  S
C454        C458   1.450       .  S
C455        N462   1.157       .  T
C456        N463   1.157       .  T
C457        N461   1.157       .  T
C458        N464   1.157       .  T
C459        N468   1.157       .  T
C460        N466   1.157       .  T
C469        C470   1.412       .  A
C469        C474   1.416       .  A
C469        C487   1.450       .  S
C470        C471   1.409       .  A
C470        C475   1.499       .  S
C471        C472   1.409       .  A
C471        C476   1.451       .  S
C472        C473   1.418       .  A
C472        C488   1.452       .  S
C473        C474   1.416       .  A
C474        C477   1.450       .  S
C475        C478   1.412       .  A
C475        C482   1.412       .  A
C476        N493   1.157       .  T
C477        N495   1.157       .  T
C478        C479   1.410       .  A
C478        C483   1.451       .  S
C479        C480   1.410       .  A
C479        C485   1.448       .  S
C480        C481   1.411       .  A
C481        C482   1.414       .  A
C481        C484   1.448       .  S
C482        C486   1.449       .  S
C483        N490   1.157       .  T
C484        N491   1.157       .  T
C485        N489   1.157       .  T
C486        N492   1.157       .  T
C487        N496   1.157       .  T
C488        N494   1.157       .  T
C497        C498   1.412       .  A
C497        C502   1.410       .  A
C497        C515   1.452   1_554  S
C498        C499   1.414       .  A
C498        C503   1.503       .  S
C499        C500   1.416       .  A
C499        C504   1.450       .  S
C500        C501   1.413       .  A
C500        C516   1.450       .  S
C501        C502   1.414       .  A
C502        C505   1.452   1_554  S
C503        C506   1.414       .  A
C503        C510   1.414       .  A
C504        N521   1.157       .  T
C505        N523   1.157       .  T
C506        C507   1.412       .  A
C506        C511   1.450       .  S
C507        C508   1.410       .  A
C507        C513   1.449       .  S
C508        C509   1.410       .  A
C509        C510   1.412       .  A
C509        C512   1.449       .  S
C510        C514   1.450       .  S
C511        N518   1.157       .  T
C512        N519   1.157       .  T
C513        N517   1.157       .  T
C514        N520   1.157   1_554  T
C515        N524   1.157       .  T
C516        N522   1.157       .  T
C525        C526   1.410       .  A
C525        C530   1.410       .  A
C525        C543   1.450       .  S
C526        C527   1.413       .  A
C526        C531   1.501       .  S
C527        C528   1.415       .  A
C527        C532   1.450   1_554  S
C528        C529   1.413       .  A
C528        C544   1.449   1_554  S
C529        C530   1.413       .  A
C530        C533   1.449       .  S
C531        C534   1.412       .  A
C531        C538   1.410   1_554  A
C532        N549   1.157       .  T
C533        N551   1.157       .  T
C534        C535   1.415       .  A
C534        C539   1.450       .  S
C535        C536   1.417       .  A
C535        C541   1.451       .  S
C536        C537   1.416   1_554  A
C537        C538   1.412       .  A
C537        C540   1.451       .  S
C538        C542   1.451       .  S
C539        N546   1.157       .  T
C540        N547   1.157       .  T
C541        N545   1.157       .  T
C542        N548   1.157       .  T
C543        N552   1.157       .  T
C544        N550   1.157       .  T
C553        C554   1.411       .  A
C553        C558   1.408       .  A
C553        C571   1.451       .  S
C554        C555   1.411       .  A
C554        C559   1.493       .  S
C555        C556   1.412       .  A
C555        C560   1.450       .  S
C556        C557   1.410       .  A
C556        C572   1.448       .  S
C557        C558   1.410       .  A
C558        C561   1.449       .  S
C559        C562   1.409       .  A
C559        C566   1.410       .  A
C560        N577   1.157       .  T
C561        N579   1.157   1_554  T
C562        C563   1.408   1_554  A
C562        C567   1.451   1_554  S
C563        C564   1.417   1_556  A
C563        C569   1.452       .  S
C564        C565   1.414       .  A
C565        C566   1.411       .  A
C565        C568   1.451       .  S
C566        C570   1.450       .  S
C567        N574   1.157       .  T
C568        N575   1.157       .  T
C569        N573   1.157       .  T
C570        N576   1.157       .  T
C571        N580   1.157   1_554  T
C572        N578   1.157       .  T
C581        C582   1.410       .  A
C581        C586   1.411       .  A
C581        C599   1.451       .  S
C582        C583   1.410       .  A
C582        C587   1.504       .  S
C583        C584   1.415       .  A
C583        C588   1.451       .  S
C584        C585   1.425       .  A
C584        C600   1.450       .  S
C585        C586   1.423       .  A
C586        C589   1.450       .  S
C587        C590   1.411       .  A
C587        C594   1.411       .  A
C588        N605   1.157       .  T
C589        N607   1.158       .  T
C590        C591   1.411       .  A
C590        C595   1.450       .  S
C591        C592   1.422       .  A
C591        C597   1.452       .  S
C592        C593   1.422       .  A
C593        C594   1.414       .  A
C593        C596   1.450       .  S
C594        C598   1.451       .  S
C595        N602   1.157       .  T
C596        N603   1.158       .  T
C597        N601   1.158       .  T
C598        N604   1.157       .  T
C599        N608   1.157       .  T
C600        N606   1.158       .  T
C609        C610   1.411       .  A
C609        C614   1.411       .  A
C609        C627   1.451       .  S
C610        C611   1.409       .  A
C610        C615   1.502       .  S
C611        C612   1.414       .  A
C611        C616   1.450       .  S
C612        C613   1.424       .  A
C612        C628   1.451       .  S
C613        C614   1.422       .  A
C614        C617   1.451       .  S
C615        C618   1.410       .  A
C615        C622   1.409       .  A
C616        N633   1.157       .  T
C617        N635   1.158       .  T
C618        C619   1.416       .  A
C618        C623   1.451       .  S
C619        C620   1.424       .  A
C619        C625   1.450       .  S
C620        C621   1.421       .  A
C621        C622   1.409       .  A
C621        C624   1.450       .  S
C622        C626   1.451       .  S
C623        N630   1.157       .  T
C624        N631   1.158       .  T
C625        N629   1.157       .  T
C626        N632   1.157       .  T
C627        N636   1.157       .  T
C628        N634   1.158       .  T
