geometry optimzed in LAMMPS
_audit_creation_date              2020-12-01 
_audit_creation_method            'lammps2cif' 
_symmetry_space_group_name_H-M    'P1' 
_symmetry_Int_Tables_number       1 
_symmetry_cell_setting            triclinic 
loop_ 
_symmetry_equiv_pos_as_xyz 
  x,y,z 
_cell_length_a                    24.25121792 
_cell_length_b                    48.39928803565521 
_cell_length_c                    33.75807998713511 
_cell_angle_alpha                 88.32263829459174 
_cell_angle_beta                  90.71523496427118 
_cell_angle_gamma                 89.75905785384784 
loop_ 
_atom_site_label 
_atom_site_type_symbol 
_atom_site_fract_x 
_atom_site_fract_y 
_atom_site_fract_z 
_atom_site_charge 
C1          C  0.30064737  0.24953734  0.31531251     0.80800
N2          N  0.29692499  0.22603237  0.29499411    -0.77500
C3          C  0.29046535  0.22684509  0.25501866     0.83200
N4          N  0.28608525  0.25170530  0.23479257    -0.77500
C5          C  0.28982232  0.27548920  0.25552410     0.83300
N6          N  0.29730365  0.27404335  0.29542103    -0.79200
C7          C  0.28095349  0.25787528  0.60222652     0.80800
N8          N  0.27768257  0.28115151  0.62297137    -0.77500
C9          C  0.27169682  0.28012255  0.66292043     0.83200
N10         N  0.26877731  0.25512742  0.68271021    -0.77500
C11         C  0.27318541  0.23151215  0.66165065     0.83300
N12         N  0.27919619  0.23320364  0.62174332    -0.79200
C13         C  0.01862295  0.35481735  0.81971307     0.80800
N14         N  0.06497411  0.36045061  0.79922261    -0.77500
C15         C  0.06278349  0.36833126  0.76029555     0.83200
N16         N  0.01286264  0.37047589  0.74117323    -0.77500
C17         C  0.96587942  0.36394401  0.76143317     0.83300
N18         N  0.96923238  0.35626898  0.80052358    -0.79200
C19         C  0.01224544  0.36092863  0.10739975     0.80800
N20         N  0.96529173  0.36456281  0.12771605    -0.77500
C21         C  0.96624547  0.37142482  0.16639656     0.83200
N22         N  0.01587406  0.37478955  0.18548434    -0.77500
C23         C  0.06378072  0.37041329  0.16531341     0.83300
N24         N  0.06134392  0.36351506  0.12648696    -0.79200
Zn25       Zn  0.20116815  0.40680147  0.69425849     1.49700
Zn26       Zn  0.32057860  0.39648732  0.74436105     1.49400
Zn27       Zn  0.23278757  0.34757739  0.74161525     1.49100
Zn28       Zn  0.29573504  0.36718166  0.66579066     1.49500
O29         O  0.26135009  0.38005671  0.71205201    -1.83600
O30         O  0.22043565  0.44538146  0.71579902    -0.74200
O31         O  0.32192133  0.38032254  0.80090498    -0.74000
O32         O  0.15236159  0.35355473  0.74857916    -0.73600
O33         O  0.29853363  0.43592619  0.74959961    -0.74200
O34         O  0.12702149  0.39361111  0.71915608    -0.73800
O35         O  0.26168053  0.34598103  0.79796741    -0.74400
O36         O  0.29137558  0.32688924  0.66312780    -0.73800
O37         O  0.39879723  0.39525461  0.72013191    -0.74600
O38         O  0.24557040  0.31036996  0.71498147    -0.74000
O39         O  0.37367055  0.37830876  0.66242225    -0.74400
O40         O  0.25815267  0.38044791  0.61676269    -0.74300
O41         O  0.19149357  0.40940918  0.63239006    -0.74100
C42         C  0.26027694  0.45263570  0.73841368     0.77700
C43         C  0.29497739  0.36072845  0.81760668     0.78200
C44         C  0.11603577  0.37192943  0.74024275     0.77100
C45         C  0.27009780  0.30682564  0.68235624     0.77500
C46         C  0.41022168  0.38829793  0.68502767     0.78600
C47         C  0.21851511  0.39634982  0.60649567     0.77700
Zn48       Zn  0.30359780  0.36310048  0.25838154     1.49700
Zn49       Zn  0.23678333  0.34723840  0.18090876     1.49400
Zn50       Zn  0.20750839  0.40347302  0.23087387     1.49100
Zn51       Zn  0.32462868  0.39613628  0.18091080     1.49500
O52         O  0.26665519  0.37780237  0.21218815    -1.83600
O53         O  0.30584034  0.32256953  0.25741068    -0.74200
O54         O  0.15465876  0.35389287  0.17400499    -0.74000
O55         O  0.20063864  0.40341213  0.29269539    -0.73600
O56         O  0.25437473  0.30874799  0.20681547    -0.74200
O57         O  0.26451467  0.37183018  0.30749715    -0.73800
O58         O  0.13223106  0.39185032  0.20642390    -0.74400
O59         O  0.30037390  0.43506454  0.17342555    -0.73800
O60         O  0.26600187  0.34851429  0.12450723    -0.74600
O61         O  0.22531868  0.44271483  0.20941935    -0.74000
O62         O  0.32937722  0.38146595  0.12548532    -0.74400
O63         O  0.40158851  0.39665596  0.20717376    -0.74300
O64         O  0.37970018  0.37747328  0.26518014    -0.74100
C65         C  0.28392693  0.30344903  0.23773199     0.77700
C66         C  0.11923997  0.37192946  0.18402015     0.78200
C67         C  0.22665467  0.38804698  0.31815875     0.77100
C68         C  0.26272570  0.45099721  0.18552650     0.77500
C69         C  0.30213526  0.36334221  0.10699925     0.78600
C70         C  0.41425696  0.38952214  0.24274427     0.77700
C71         C  0.52001477  0.40352888  0.31851431     0.80800
N72         N  0.56693154  0.40091738  0.29790557    -0.77500
C73         C  0.56575483  0.39602508  0.25858932     0.83200
N74         N  0.51631186  0.39338567  0.23928332    -0.77500
C75         C  0.46860726  0.39563475  0.26014589     0.83300
N76         N  0.47096141  0.40043446  0.29964420    -0.79200
C77         C  0.51162413  0.39882528  0.60680937     0.80800
N78         N  0.56007297  0.39397539  0.62604466    -0.77500
C79         C  0.56170640  0.38881847  0.66589740     0.83200
N80         N  0.51367070  0.38819330  0.68688774    -0.77500
C81         C  0.46467127  0.39272091  0.66716119     0.83300
N82         N  0.46448856  0.39782743  0.62748379    -0.79200
Zn83       Zn  0.70596165  0.38698453  0.74535784     1.49700
Zn84       Zn  0.82133909  0.39663670  0.69503878     1.49400
Zn85       Zn  0.79547624  0.33822054  0.74441418     1.49100
Zn86       Zn  0.72806327  0.35650629  0.66668294     1.49500
O87         O  0.76365961  0.36976991  0.71339949    -1.83600
O88         O  0.72910134  0.42598125  0.75246088    -0.74200
O89         O  0.89643870  0.38525934  0.71971308    -0.74000
O90         O  0.76584679  0.33659319  0.80071734    -0.73600
O91         O  0.80278787  0.43492869  0.71525928    -0.74200
O92         O  0.70347707  0.37032839  0.80144808    -0.73800
O93         O  0.87668367  0.34594784  0.75265518    -0.74400
O94         O  0.73115458  0.31575779  0.66590071    -0.73800
O95         O  0.82917044  0.39916751  0.63413160    -0.74600
O96         O  0.78367864  0.30089454  0.71674242    -0.74000
O97         O  0.76629644  0.36849528  0.61709143    -0.74400
O98         O  0.65045297  0.37008020  0.66155097    -0.74300
O99         O  0.62876147  0.38814002  0.71902412    -0.74100
C100        C  0.76607911  0.44237936  0.73955896     0.77700
C101        C  0.91063201  0.36490242  0.74261117     0.78200
C102        C  0.73112680  0.35111181  0.81922741     0.77100
C103        C  0.75620137  0.29639796  0.68502762     0.77500
C104        C  0.80422548  0.38538740  0.60777066     0.78600
C105        C  0.61588633  0.38170003  0.68375408     0.77700
Zn106      Zn  0.72898929  0.36167827  0.25760960     1.49700
Zn107      Zn  0.70810265  0.39727580  0.18039037     1.49400
Zn108      Zn  0.82458863  0.40319751  0.23342090     1.49100
Zn109      Zn  0.79553256  0.34801755  0.18167177     1.49500
O110        O  0.76536757  0.37798570  0.21284245    -1.83600
O111        O  0.65255201  0.37548096  0.26214027    -0.74200
O112        O  0.73462671  0.43599678  0.17285845    -0.74000
O113        O  0.83125627  0.40167291  0.29527678    -0.73600
O114        O  0.63181087  0.39871889  0.20627043    -0.74200
O115        O  0.76720444  0.37018849  0.30775405    -0.73800
O116        O  0.80744997  0.44287421  0.21264124    -0.74400
O117        O  0.87593743  0.35580925  0.17456012    -0.73800
O118        O  0.70103999  0.38178126  0.12503484    -0.74600
O119        O  0.90039765  0.39211696  0.20989522    -0.74000
O120        O  0.76300377  0.34786874  0.12588920    -0.74400
O121        O  0.78516264  0.30975629  0.20826982    -0.74300
O122        O  0.73030644  0.32092184  0.25759834    -0.74100
C123        C  0.61875752  0.38946915  0.24057923     0.77700
C124        C  0.77203862  0.45153453  0.18670203     0.78200
C125        C  0.80527986  0.38589705  0.31962142     0.77100
C126        C  0.91209518  0.37302261  0.18589542     0.77500
C127        C  0.72667919  0.36265404  0.10760532     0.78600
C128        C  0.75677489  0.30306112  0.23858459     0.77700
C129        C  0.76527499  0.24791321  0.31523599     0.80800
N130        N  0.75933612  0.27279409  0.29642776    -0.77500
C131        C  0.75882728  0.27504990  0.25620492     0.83200
N132        N  0.76317313  0.25191389  0.23426150    -0.77500
C133        C  0.76806266  0.22679831  0.25343858     0.83300
N134        N  0.76994414  0.22509430  0.29356780    -0.79200
C135        C  0.76208382  0.24781380  0.60392073     0.80800
N136        N  0.75746833  0.27086538  0.62514731    -0.77500
C137        C  0.75790861  0.26967282  0.66535482     0.83200
N138        N  0.76167699  0.24461431  0.68495810    -0.77500
C139        C  0.76542342  0.22117558  0.66338419     0.83300
N140        N  0.76645728  0.22303677  0.62318319    -0.79200
C141        C  0.77416395  0.99247150  0.81835482     0.80800
N142        N  0.76952852  0.46882421  0.79840399    -0.77500
C143        C  0.76981301  0.46913413  0.75824058     0.83200
N144        N  0.77337596  0.99364211  0.73731612    -0.77500
C145        C  0.77746687  0.01758924  0.75752781     0.83300
N146        N  0.77841336  0.01669371  0.79778413    -0.79200
C147        C  0.78328763  0.00329722  0.10603584     0.80800
N148        N  0.77778912  0.47926246  0.12684734    -0.77500
C149        C  0.77781610  0.47874222  0.16707474     0.83200
N150        N  0.78175004  0.00287444  0.18707288    -0.77500
C151        C  0.78677599  0.02720186  0.16580290     0.83300
N152        N  0.78797202  0.02701391  0.12566122    -0.79200
Zn153      Zn  0.74128868  0.08898907  0.67805073     1.49700
Zn154      Zn  0.71459308  0.14589927  0.72755046     1.49400
Zn155      Zn  0.80808898  0.10422812  0.75499308     1.49100
Zn156      Zn  0.82930002  0.13785359  0.67595408     1.49500
O157        O  0.77229126  0.11956719  0.70855077    -1.83600
O158        O  0.66002378  0.09668186  0.67134026    -0.74200
O159        O  0.70872370  0.14716983  0.78883003    -0.74000
O160        O  0.80333442  0.06368662  0.75750822    -0.73600
O161        O  0.63894492  0.13429180  0.70500927    -0.74200
O162        O  0.75301062  0.05080717  0.70587062    -0.73800
O163        O  0.77228196  0.11564186  0.80442857    -0.74400
O164        O  0.90669067  0.13709117  0.70182338    -0.73800
O165        O  0.73197234  0.18486733  0.70564118    -0.74600
O166        O  0.88582297  0.11598897  0.75893085    -0.74000
O167        O  0.80622799  0.17744734  0.66881254    -0.74400
O168        O  0.83197896  0.12293975  0.62018578    -0.74300
O169        O  0.77135974  0.08867013  0.62172499    -0.74100
C170        C  0.62522103  0.11461510  0.68246771     0.77700
C171        C  0.73504190  0.13235627  0.81466186     0.78200
C172        C  0.77912166  0.04511699  0.73816495     0.77100
C173        C  0.92004435  0.12847023  0.73668879     0.77500
C174        C  0.76886718  0.19336326  0.68155629     0.78600
C175        C  0.80585279  0.10379094  0.60295140     0.77700
Zn176      Zn  0.75173345  0.09743443  0.24093544     1.49700
Zn177      Zn  0.71812660  0.15431022  0.18890965     1.49400
Zn178      Zn  0.83814717  0.14671603  0.23752857     1.49100
Zn179      Zn  0.81268836  0.11448999  0.16122088     1.49500
O180        O  0.77911448  0.12851973  0.20755757    -1.83600
O181        O  0.67051898  0.10396380  0.24852698    -0.74200
O182        O  0.73423218  0.19261348  0.21042325    -0.74000
O183        O  0.84551906  0.13154683  0.29407859    -0.73600
O184        O  0.64388720  0.14129190  0.21277879    -0.74200
O185        O  0.78504510  0.09727891  0.29682866    -0.73800
O186        O  0.81346089  0.18539730  0.24380739    -0.74400
O187        O  0.89054786  0.12689392  0.15487882    -0.73800
O188        O  0.70922183  0.15715079  0.12762626    -0.74600
O189        O  0.91370571  0.14711362  0.21076870    -0.74000
O190        O  0.77250903  0.12633927  0.11191018    -0.74400
O191        O  0.80906566  0.07378703  0.16223238    -0.74300
O192        O  0.76393854  0.05954498  0.21592948    -0.74100
C193        C  0.63337356  0.12123683  0.23697969     0.77700
C194        C  0.77310248  0.20082352  0.23302704     0.72600
C195        C  0.82064206  0.11253219  0.31356174     0.77100
C196        C  0.92576792  0.13905930  0.17634274     0.77500
C197        C  0.73409138  0.14309809  0.10182160     0.78600
C198        C  0.78787106  0.05458937  0.18343223     0.77700
C199        C  0.53323924  0.10934992  0.31646215     0.80800
N200        N  0.58035999  0.11250452  0.29593064    -0.77500
C201        C  0.57935459  0.11883458  0.25649837     0.83200
N202        N  0.52972727  0.12211883  0.23700319    -0.77500
C203        C  0.48185846  0.11794602  0.25751217     0.83300
N204        N  0.48425846  0.11171467  0.29700219    -0.79200
C205        C  0.51861393  0.11000783  0.60472544     0.80800
N206        N  0.56742876  0.10959871  0.62451052    -0.77500
C207        C  0.56989602  0.11388693  0.66410401     0.83200
N208        N  0.52234506  0.11827072  0.68458143    -0.77500
C209        C  0.47290668  0.11823063  0.66458555     0.83300
N210        N  0.47188274  0.11445102  0.62490755    -0.79200
C211        C  0.27370161  0.00141574  0.81853610     0.80800
N212        N  0.27316640  0.02622944  0.79906933    -0.77500
C213        C  0.26542402  0.02802051  0.75913631     0.83200
N214        N  0.25845891  0.00445249  0.73812421    -0.77500
C215        C  0.26021047  0.47936380  0.75790745     0.83300
N216        N  0.26787964  0.47822832  0.79772273    -0.79200
C217        C  0.26304521  0.00432025  0.10649957     0.80800
N218        N  0.26169398  0.47974087  0.12641856    -0.77500
C219        C  0.26034359  0.47853381  0.16666582     0.83200
N220        N  0.26191057  0.00231339  0.18760414    -0.77500
C221        C  0.26331719  0.02709719  0.16724458     0.83300
N222        N  0.26351469  0.02772093  0.12707859    -0.79200
C223        C  0.01882805  0.14898045  0.81316790     0.80800
N224        N  0.97213813  0.14274605  0.79330261    -0.77500
C225        C  0.97325275  0.13529904  0.75494655     0.83200
N226        N  0.02250736  0.13336726  0.73603043    -0.77500
C227        C  0.07000749  0.13956097  0.75609726     0.83300
N228        N  0.06769301  0.14744256  0.79440844    -0.79200
C229        C  0.03081303  0.15253575  0.10059603     0.80800
N230        N  0.98200285  0.14932460  0.11910799    -0.77500
C231        C  0.98009587  0.14456771  0.15898305     0.83200
N232        N  0.02802617  0.14253506  0.18072360    -0.77500
C233        C  0.07728960  0.14524456  0.16184246     0.83300
N234        N  0.07796753  0.15009582  0.12206440    -0.79200
Zn235      Zn  0.30339749  0.14399883  0.66335017     1.49700
Zn236      Zn  0.21094051  0.10368368  0.69457940     1.49400
Zn237      Zn  0.32995949  0.11113806  0.74368278     1.49100
Zn238      Zn  0.24168632  0.16054777  0.74114410     1.49500
O239        O  0.27093000  0.12939735  0.71115732    -1.83600
O240        O  0.27094603  0.12870411  0.61385772    -0.74200
O241        O  0.22840379  0.06467991  0.71771060    -0.74000
O242        O  0.40715562  0.11286112  0.71742041    -0.73600
O243        O  0.20238536  0.10167467  0.63368209    -0.74200
O244        O  0.38296412  0.13513304  0.66141752    -0.73800
O245        O  0.30713375  0.07135543  0.75118622    -0.74400
O246        O  0.27270268  0.16060979  0.79698229    -0.73800
O247        O  0.13681366  0.11656004  0.71704759    -0.74600
O248        O  0.33341096  0.12610592  0.79988426    -0.74000
O249        O  0.16091264  0.15461419  0.74856370    -0.74400
O250        O  0.25288254  0.19852240  0.71392124    -0.74300
O251        O  0.29303978  0.18451191  0.65923026    -0.74100
C252        C  0.23113033  0.11274213  0.60611184     0.77700
C253        C  0.26761373  0.05582232  0.74042053     0.78200
C254        C  0.41906732  0.12287583  0.68316710     0.77100
C255        C  0.30708923  0.14542477  0.81646991     0.77500
C256        C  0.12490550  0.13699236  0.73855320     0.78600
C257        C  0.27334891  0.20362219  0.67993562     0.77700
Zn258      Zn  0.33787871  0.15302386  0.19262081     1.49700
Zn259      Zn  0.22040114  0.14570403  0.24291469     1.49400
Zn260      Zn  0.24276696  0.11423953  0.16493003     1.49100
Zn261      Zn  0.30868812  0.09596161  0.24317533     1.49500
O262        O  0.27833198  0.12754339  0.21158432    -1.83600
O263        O  0.32167962  0.19166326  0.21297807    -0.74200
O264        O  0.14301020  0.14679412  0.21602694    -0.74000
O265        O  0.27845041  0.12593479  0.11429635    -0.73600
O266        O  0.24563291  0.18473404  0.24873414    -0.74200
O267        O  0.34453716  0.15484469  0.13165096    -0.73800
O268        O  0.16591369  0.12711488  0.16004511    -0.74400
O269        O  0.29243532  0.05821973  0.21790962    -0.73800
O270        O  0.21637584  0.12947239  0.29975822    -0.74600
O271        O  0.24429614  0.07387257  0.16542871    -0.74000
O272        O  0.27971401  0.09616079  0.29935159    -0.74400
O273        O  0.39096343  0.10188487  0.24989585    -0.74300
O274        O  0.41321039  0.14045700  0.21611498    -0.74100
C275        C  0.28451546  0.20019092  0.23623483     0.77700
C276        C  0.13084160  0.13917805  0.18114737     0.78200
C277        C  0.31751485  0.14211833  0.10518467     0.77100
C278        C  0.26562500  0.05409019  0.18582906     0.77500
C279        C  0.24454550  0.11048561  0.31771999     0.78600
C280        C  0.42638917  0.11991769  0.23897047     0.77700
C281        C  0.25607598  0.09582241  0.43042922     0.16500
C282        C  0.27514155  0.08895553  0.46888544    -0.32500
C283        C  0.24406578  0.09798672  0.50085165     0.20900
C284        C  0.19544373  0.11277954  0.49493315     0.03100
C285        C  0.17645320  0.11981057  0.45630023    -0.22300
C286        C  0.20824763  0.11121546  0.42418898     0.12300
S287        S  0.28953766  0.08773555  0.38809213    -0.05900
C288        C  0.23946513  0.10575166  0.36119196    -0.09400
C289        C  0.19864303  0.11717073  0.38442779    -0.26000
S290        S  0.16547876  0.12288193  0.53801474    -0.03200
C291        C  0.21951173  0.10737408  0.56403688    -0.16700
C292        C  0.25823170  0.09504869  0.54027401    -0.14700
H293        H  0.31336625  0.07764364  0.47368903     0.20700
H294        H  0.13935632  0.13203374  0.45151969     0.16800
H295        H  0.16451516  0.12961680  0.37295016     0.19300
H296        H  0.29619660  0.08557495  0.55123145     0.12600
C297        C  0.30298343  0.16184952  0.92752752     0.16500
C298        C  0.28918409  0.17155027  0.96495298    -0.32500
C299        C  0.31296213  0.15814762  0.99848926     0.20900
C300        C  0.34905292  0.13608646  0.99491996     0.03100
C301        C  0.36295376  0.12641778  0.95744297    -0.22300
C302        C  0.33899491  0.13977187  0.92386980     0.12300
S303        S  0.27634180  0.17445951  0.88349856    -0.05900
C304        C  0.31384647  0.14969183  0.85958862    -0.09400
C305        C  0.34549275  0.13271912  0.88495343    -0.26000
S306        S  0.37038616  0.12143206  0.03928920    -0.03200
C307        C  0.33087137  0.14545852  0.06290704    -0.16700
C308        C  0.30224604  0.16354873  0.03743269    -0.14700
H309        H  0.26022952  0.18844676  0.96783226     0.20700
H310        H  0.39027244  0.10884987  0.95462078     0.16800
H311        H  0.37051963  0.11558180  0.87557006     0.19300
H312        H  0.27294035  0.17888366  0.04689263     0.12600
C313        C  0.99014878  0.15920792  0.92307550     0.16500
C314        C  0.96646582  0.15933641  0.96070125    -0.32500
C315        C  0.00222361  0.15944910  0.99361435     0.20900
C316        C  0.05901042  0.16005805  0.98923320     0.03100
C317        C  0.08268294  0.16044823  0.95156745    -0.22300
C318        C  0.04694273  0.15969692  0.91867340     0.12300
S319        S  0.95396984  0.15626356  0.87984442    -0.05900
C320        C  0.01602401  0.15514481  0.85553347    -0.09400
C321        C  0.06208194  0.15762249  0.87988082    -0.26000
S322        S  0.09534389  0.15849677  0.03279389    -0.03200
C323        C  0.03338573  0.15662723  0.05725024    -0.16700
C324        C  0.98722249  0.15761384  0.03260686    -0.14700
H325        H  0.92217857  0.15833995  0.96420824     0.20700
H326        H  0.12703078  0.16031544  0.94811525     0.16800
H327        H  0.10435683  0.15662235  0.87002363     0.19300
H328        H  0.94503115  0.15621018  0.04259458     0.12600
C329        C  0.27620542  0.48556399  0.93021652     0.16500
C330        C  0.27183803  0.47333243  0.96813838    -0.32500
C331        C  0.27116710  0.49091825  0.00034305     0.20900
C332        C  0.27550205  0.01938181  0.99506607     0.03100
C333        C  0.28042275  0.03158721  0.95719235    -0.22300
C334        C  0.28041545  0.01403655  0.92496369     0.12300
S335        S  0.27447189  0.46795690  0.88729175    -0.05900
C336        C  0.27846607  0.99932988  0.86193525    -0.09400
C337        C  0.28198571  0.02206679  0.88579024    -0.26000
S338        S  0.27312089  0.03718801  0.03774816    -0.03200
C339        C  0.26649803  0.00596872  0.06309486    -0.16700
C340        C  0.26601475  0.48306083  0.03940660    -0.14700
H341        H  0.26817246  0.45114202  0.97229755     0.20700
H342        H  0.28316758  0.05381167  0.95299099     0.16800
H343        H  0.28374860  0.04335596  0.87507614     0.19300
H344        H  0.26231413  0.46185258  0.05015925     0.12600
C345        C  0.56035068  0.10215218  0.42855083     0.16500
C346        C  0.58355322  0.10139396  0.46681196    -0.32500
C347        C  0.54751070  0.10311080  0.49882477     0.20900
C348        C  0.49089102  0.10515080  0.49302094     0.03100
C349        C  0.46766260  0.10555463  0.45481455    -0.22300
C350        C  0.50372212  0.10416241  0.42281166     0.12300
S351        S  0.59713114  0.10220696  0.38578521    -0.05900
C352        C  0.53554517  0.10516553  0.35985701    -0.09400
C353        C  0.48919820  0.10571260  0.38346957    -0.26000
S354        S  0.45434039  0.10817241  0.53549283    -0.03200
C355        C  0.51599991  0.10684978  0.56148002    -0.16700
C356        C  0.56219738  0.10395862  0.53811436    -0.14700
H357        H  0.62779222  0.10018245  0.47138406     0.20700
H358        H  0.42352617  0.10749875  0.45020511     0.16800
H359        H  0.44723976  0.10809727  0.37250622     0.19300
H360        H  0.60431298  0.10314680  0.54916546     0.12600
C361        C  0.80573848  0.08850322  0.49118931     0.16500
C362        C  0.79323905  0.07941978  0.45295211    -0.32500
C363        C  0.81552476  0.09420439  0.42049387     0.20900
C364        C  0.84958118  0.11674930  0.42589995     0.03100
C365        C  0.86262740  0.12563407  0.46415583    -0.22300
C366        C  0.83959128  0.11112180  0.49659044     0.12300
S367        S  0.77921036  0.07476372  0.53416545    -0.05900
C368        C  0.81367813  0.09986628  0.55989696    -0.09400
C369        C  0.84452877  0.11764492  0.53589326    -0.26000
S370        S  0.86956179  0.13294590  0.38271579    -0.03200
C371        C  0.83093191  0.10939211  0.35689700    -0.16700
C372        C  0.80487008  0.08981512  0.38102896    -0.14700
H373        H  0.76585235  0.06212270  0.44864104     0.20700
H374        H  0.88820667  0.14361877  0.46840183     0.16800
H375        H  0.86766109  0.13510692  0.54645616     0.19300
H376        H  0.77757471  0.07394149  0.37035900     0.12600
C377        C  0.72120222  0.12176189  0.92679176     0.16500
C378        C  0.72655838  0.11100395  0.96542414    -0.32500
C379        C  0.71843748  0.12892029  0.99647065     0.20900
C380        C  0.70413844  0.15642302  0.98984291     0.03100
C381        C  0.69772708  0.16725363  0.95066149    -0.22300
C382        C  0.70712380  0.14923460  0.91914763     0.12300
S383        S  0.73538170  0.10337559  0.88611726    -0.05900
C384        C  0.72279991  0.13276291  0.85746273    -0.09400
C385        C  0.70728621  0.15570031  0.87886755    -0.26000
S386        S  0.69986240  0.17467368  0.03283946    -0.03200
C387        C  0.71898744  0.14487098  0.05917469    -0.16700
C388        C  0.72673621  0.12227713  0.03564122    -0.14700
H389        H  0.73874411  0.08968468  0.97109354     0.20700
H390        H  0.68783488  0.18885439  0.94502588     0.16800
H391        H  0.69955825  0.17611828  0.86599435     0.19300
H392        H  0.74004602  0.10203146  0.04661821     0.12600
C393        C  0.78498712  0.01549450  0.99355323     0.16500
C394        C  0.78791890  0.02649220  0.95484702    -0.32500
C395        C  0.78080036  0.00825034  0.92378140     0.20900
C396        C  0.77120451  0.48029939  0.93084129     0.03100
C397        C  0.76815206  0.46931188  0.96954981    -0.22300
C398        C  0.77536140  0.48754650  0.00062247     0.12300
S399        S  0.79256644  0.03417118  0.03524583    -0.05900
C400        C  0.78291623  0.00396763  0.06254323    -0.09400
C401        C  0.77414200  0.48078902  0.04021338    -0.26000
S402        S  0.76418525  0.46157060  0.88912974    -0.03200
C403        C  0.77425547  0.99173990  0.86186210    -0.16700
C404        C  0.78248959  0.01496207  0.88419900    -0.14700
H405        H  0.79559780  0.04826684  0.94917778     0.20700
H406        H  0.76066979  0.44751016  0.97519572     0.16800
H407        H  0.76712225  0.46013705  0.05228075     0.19300
H408        H  0.78957592  0.03561612  0.87215532     0.12600
C409        C  0.75833118  0.26392360  0.49222582     0.16500
C410        C  0.75305332  0.27621990  0.45435385    -0.32500
C411        C  0.76171619  0.25946002  0.42192323     0.20900
C412        C  0.77516151  0.23167189  0.42686854     0.03100
C413        C  0.78063709  0.21935781  0.46479827    -0.22300
C414        C  0.77166428  0.23612560  0.49728628     0.12300
S415        S  0.74885858  0.28076363  0.53521042    -0.05900
C416        C  0.76258451  0.24999090  0.56041987    -0.09400
C417        C  0.77407148  0.22796205  0.53645787    -0.26000
S418        S  0.78283153  0.21481120  0.38362325    -0.03200
C419        C  0.76760512  0.24556155  0.35869456    -0.16700
C420        C  0.75756451  0.26759090  0.38287435    -0.14700
H421        H  0.74211157  0.29783877  0.45030624     0.20700
H422        H  0.79092044  0.19764426  0.46879372     0.16800
H423        H  0.78371311  0.20714721  0.54709406     0.19300
H424        H  0.74719187  0.28837429  0.37247004     0.12600
C425        C  0.81952011  0.36997352  0.43104459     0.16500
C426        C  0.81367526  0.35768727  0.46873699    -0.32500
C427        C  0.82027960  0.37441052  0.50149978     0.20900
C428        C  0.83381022  0.40211959  0.49731732     0.03100
C429        C  0.84050006  0.41445885  0.45925358    -0.22300
C430        C  0.83247918  0.39774437  0.42608358     0.12300
S431        S  0.80695014  0.35337786  0.38825328    -0.05900
C432        C  0.81850087  0.38405927  0.36254083    -0.09400
C433        C  0.83258643  0.40598680  0.38643793    -0.26000
S434        S  0.83715827  0.41880473  0.54160297    -0.03200
C435        C  0.81854557  0.38819485  0.56535610    -0.16700
C436        C  0.81147762  0.36640445  0.54008470    -0.14700
H437        H  0.80233332  0.33615950  0.47236261     0.20700
H438        H  0.84962586  0.43625539  0.45563925     0.16800
H439        H  0.83916932  0.42698806  0.37567676     0.19300
H440        H  0.79870851  0.34581864  0.54940524     0.12600
C441        C  0.74157416  0.33764060  0.93233324     0.16500
C442        C  0.75951244  0.33066793  0.97110271    -0.32500
C443        C  0.73366152  0.34376891  0.00256837     0.20900
C444        C  0.69128481  0.36269280  0.99578388     0.03100
C445        C  0.67293131  0.36943172  0.95702796    -0.22300
C446        C  0.69935992  0.35665107  0.92551432     0.12300
S447        S  0.77050342  0.32570101  0.89010615    -0.05900
C448        C  0.72574510  0.34676386  0.86272154    -0.09400
C449        C  0.69001046  0.36191729  0.88569702    -0.26000
S450        S  0.66780532  0.37764021  0.03774524    -0.03200
C451        C  0.71600069  0.35845311  0.06484450    -0.16700
C452        C  0.74774512  0.34110838  0.04209476    -0.14700
H453        H  0.79333476  0.31630405  0.97644227     0.20700
H454        H  0.64064119  0.38464454  0.95160924     0.16800
H455        H  0.66028518  0.37687353  0.87394614     0.19300
H456        H  0.78105438  0.32811888  0.05362969     0.12600
C457        C  0.48222365  0.40635725  0.49529128     0.16500
C458        C  0.45795790  0.40700358  0.45743313    -0.32500
C459        C  0.49316852  0.40792837  0.42488034     0.20900
C460        C  0.55002058  0.40861574  0.42979063     0.03100
C461        C  0.57431530  0.40819644  0.46769639    -0.22300
C462        C  0.53908126  0.40681011  0.50028577     0.12300
S463        S  0.44653938  0.40377215  0.53831407    -0.05900
C464        C  0.50883686  0.40290008  0.56347718    -0.09400
C465        C  0.55469612  0.40484066  0.53945746    -0.26000
S466        S  0.58559569  0.40844129  0.38659274    -0.03200
C467        C  0.52321607  0.40698292  0.36163954    -0.16700
C468        C  0.47748182  0.40711902  0.38581351    -0.14700
H469        H  0.41360421  0.40615524  0.45353353     0.20700
H470        H  0.61871069  0.40825385  0.47159539     0.16800
H471        H  0.59706194  0.40429009  0.54999690     0.19300
H472        H  0.43513963  0.40577600  0.37548680     0.12600
C473        C  0.21614480  0.37633707  0.43059070     0.16500
C474        C  0.22399967  0.36581486  0.46916793    -0.32500
C475        C  0.21053562  0.38278067  0.50037697     0.20900
C476        C  0.18901439  0.40909897  0.49399105     0.03100
C477        C  0.18035057  0.41967119  0.45484239    -0.22300
C478        C  0.19487640  0.40265321  0.42314010     0.12300
S479        S  0.23487887  0.35919432  0.38973114    -0.05900
C480        C  0.21455242  0.38759283  0.36114733    -0.09400
C481        C  0.19332348  0.40924341  0.38284080    -0.26000
S482        S  0.17859106  0.42644729  0.53729219    -0.03200
C483        C  0.20486991  0.39795688  0.56347702    -0.16700
C484        C  0.21936378  0.37636187  0.53955449    -0.14700
H485        H  0.24164579  0.34545502  0.47469696     0.20700
H486        H  0.16460327  0.44041089  0.44937542     0.16800
H487        H  0.18012939  0.42900980  0.37013274     0.19300
H488        H  0.23748319  0.35700773  0.55030464     0.12600
C489        C  0.28206898  0.34552337  0.92968456     0.16500
C490        C  0.26370947  0.33772620  0.96767336    -0.32500
C491        C  0.29070683  0.34909732  0.00040588     0.20900
C492        C  0.33433009  0.36725234  0.99549840     0.03100
C493        C  0.35278877  0.37497580  0.95751135    -0.22300
C494        C  0.32544505  0.36382988  0.92476793     0.12300
S495        S  0.25298435  0.33513460  0.88628370    -0.05900
C496        C  0.29925503  0.35591910  0.86103636    -0.09400
C497        C  0.33547463  0.36991262  0.88545832    -0.26000
S498        S  0.35981947  0.37983049  0.03877804    -0.03200
C499        C  0.31095423  0.36063404  0.06395396    -0.16700
C500        C  0.27724581  0.34511415  0.03961220    -0.14700
H501        H  0.22911787  0.32386595  0.97151152     0.20700
H502        H  0.38619632  0.38954156  0.95363120     0.16800
H503        H  0.36634647  0.38441451  0.87506996     0.19300
H504        H  0.24331840  0.33243305  0.04988978     0.12600
C505        C  0.04947376  0.34651857  0.93142237     0.16500
C506        C  0.07392725  0.34738664  0.96927000    -0.32500
C507        C  0.03885601  0.34904202  0.00188920     0.20900
C508        C  0.98196960  0.34905850  0.99706667     0.03100
C509        C  0.95752505  0.34757584  0.95930992    -0.22300
C510        C  0.99258461  0.34667445  0.92662272     0.12300
S511        S  0.08478504  0.34775681  0.88798721    -0.05900
C512        C  0.02228586  0.34914478  0.86294804    -0.09400
C513        C  0.97671283  0.34786958  0.88740549    -0.26000
S514        S  0.94657715  0.35293917  0.03991425    -0.03200
C515        C  0.00902005  0.35495899  0.06473731    -0.16700
C516        C  0.05467398  0.35228776  0.04071118    -0.14700
H517        H  0.11833544  0.34793831  0.97297936     0.20700
H518        H  0.91312295  0.34825940  0.95546440     0.16800
H519        H  0.93426790  0.34930649  0.87715943     0.19300
H520        H  0.09711162  0.35354815  0.05084821     0.12600
C521        C  0.30213770  0.23651295  0.42750361     0.16500
C522        C  0.29990797  0.22509280  0.46595252    -0.32500
C523        C  0.29481383  0.24335883  0.49708469     0.20900
C524        C  0.29229826  0.27175936  0.49040409     0.03100
C525        C  0.29476101  0.28320483  0.45191674    -0.22300
C526        C  0.29961844  0.26490327  0.42074791     0.12300
S527        S  0.30606596  0.21776482  0.38568542    -0.05900
C528        C  0.30383191  0.24850818  0.35874475    -0.09400
C529        C  0.30089050  0.27193854  0.38129114    -0.26000
S530        S  0.28557459  0.29030234  0.53227629    -0.03200
C531        C  0.28620559  0.25939038  0.55896952    -0.16700
C532        C  0.29128787  0.23613858  0.53635506    -0.14700
H533        H  0.30146190  0.20292872  0.47134026     0.20700
H534        H  0.29254576  0.30533775  0.44644652     0.16800
H535        H  0.29816752  0.29295013  0.36943443     0.19300
H536        H  0.29219752  0.21504378  0.54799869     0.12600
C537        C  0.30052182  0.74952994  0.31532292     0.80800
N538        N  0.29683240  0.72602527  0.29500158    -0.77500
C539        C  0.29041110  0.72683859  0.25502309     0.83200
N540        N  0.28604213  0.75169923  0.23479605    -0.77500
C541        C  0.28974779  0.77548289  0.25553148     0.83300
N542        N  0.29718697  0.77403612  0.29543162    -0.79200
C543        C  0.28103069  0.75786956  0.60224702     0.80800
N544        N  0.27772245  0.78114596  0.62298871    -0.77500
C545        C  0.27171628  0.78011776  0.66293616     0.83200
N546        N  0.26880625  0.75512182  0.68272659    -0.77500
C547        C  0.27325019  0.73150636  0.66166948     0.83300
N548        N  0.27928585  0.73319836  0.62176464    -0.79200
C549        C  0.01859979  0.85478928  0.81972870     0.80800
N550        N  0.06494718  0.86042623  0.79923586    -0.77500
C551        C  0.06274946  0.86831452  0.76031188     0.83200
N552        N  0.01282534  0.87046390  0.74119539    -0.77500
C553        C  0.96584584  0.86392785  0.76145706     0.83300
N554        N  0.96920560  0.85624493  0.80054432    -0.79200
C555        C  0.01223446  0.86091579  0.10741383     0.80800
N556        N  0.96527999  0.86454498  0.12773153    -0.77500
C557        C  0.96623264  0.87140912  0.16641143     0.83200
N558        N  0.01586090  0.87478127  0.18549681    -0.77500
C559        C  0.06376839  0.87040987  0.16532461     0.83300
N560        N  0.06133243  0.86350930  0.12649910    -0.79200
Zn561      Zn  0.20111813  0.90680900  0.69428189     1.49700
Zn562      Zn  0.32053483  0.89649327  0.74437143     1.49400
Zn563      Zn  0.23275500  0.84757532  0.74162414     1.49100
Zn564      Zn  0.29567904  0.86718738  0.66580135     1.49500
O565        O  0.26130310  0.88006138  0.71206540    -1.83600
O566        O  0.22038816  0.94539074  0.71583003    -0.74200
O567        O  0.32187108  0.88033233  0.80091494    -0.74000
O568        O  0.15232561  0.85354337  0.74858071    -0.73600
O569        O  0.29850216  0.93593469  0.74960974    -0.74200
O570        O  0.12697973  0.89360856  0.71918375    -0.73800
O571        O  0.26163637  0.84598791  0.79797919    -0.74400
O572        O  0.29132695  0.82689349  0.66313296    -0.73800
O573        O  0.39875585  0.89525048  0.72014658    -0.74600
O574        O  0.24556759  0.81036333  0.71499947    -0.74000
O575        O  0.37361685  0.87830881  0.66243708    -0.74400
O576        O  0.25809296  0.88046040  0.61677956    -0.74300
O577        O  0.19143381  0.90942062  0.63241068    -0.74100
C578        C  0.26024163  0.95264518  0.73843457     0.77700
C579        C  0.29492821  0.86073854  0.81761777     0.78200
C580        C  0.11599786  0.87191963  0.74025663     0.77100
C581        C  0.27008237  0.80682363  0.68236790     0.77500
C582        C  0.41017543  0.88829169  0.68504248     0.78600
C583        C  0.21845493  0.89636257  0.60651413     0.77700
Zn584      Zn  0.30358235  0.86309443  0.25839228     1.49700
Zn585      Zn  0.23677117  0.84724056  0.18091471     1.49400
Zn586      Zn  0.20749730  0.90347576  0.23088365     1.49100
Zn587      Zn  0.32461853  0.89613474  0.18092207     1.49500
O588        O  0.26664318  0.87780200  0.21219944    -1.83600
O589        O  0.30579641  0.82256112  0.25742232    -0.74200
O590        O  0.15465068  0.85389705  0.17401013    -0.74000
O591        O  0.20063490  0.90341673  0.29270796    -0.73600
O592        O  0.25434244  0.80874751  0.20681635    -0.74200
O593        O  0.26450823  0.87183328  0.30751032    -0.73800
O594        O  0.13221611  0.89185018  0.20643662    -0.74400
O595        O  0.30036664  0.93506204  0.17343504    -0.73800
O596        O  0.26599376  0.84851698  0.12451561    -0.74600
O597        O  0.22531089  0.94271926  0.20942432    -0.74000
O598        O  0.32937459  0.88146565  0.12549625    -0.74400
O599        O  0.40157436  0.89665633  0.20718769    -0.74300
O600        O  0.37969332  0.87746015  0.26518717    -0.74100
C601        C  0.28387939  0.80344385  0.23773845     0.77700
C602        C  0.11922834  0.87193033  0.18402958     0.78200
C603        C  0.22665268  0.88805284  0.31817248     0.77100
C604        C  0.26272233  0.95099826  0.18553207     0.77500
C605        C  0.30213046  0.86334341  0.10700902     0.78600
C606        C  0.41424632  0.88951547  0.24275478     0.77700
C607        C  0.51999615  0.90353524  0.31852495     0.80800
N608        N  0.56691582  0.90092648  0.29791816    -0.77500
C609        C  0.56574164  0.89602955  0.25860284     0.83200
N610        N  0.51630047  0.89338409  0.23929660    -0.77500
C611        C  0.46859439  0.89563087  0.26015738     0.83300
N612        N  0.47094528  0.90043365  0.29965431    -0.79200
C613        C  0.51158417  0.89878053  0.60682035     0.80800
N614        N  0.56003300  0.89394540  0.62606134    -0.77500
C615        C  0.56166514  0.88880670  0.66591825     0.83200
N616        N  0.51362798  0.88818800  0.68690797    -0.77500
C617        C  0.46462855  0.89270271  0.66717517     0.83300
N618        N  0.46444809  0.89778869  0.62749357    -0.79200
Zn619      Zn  0.70592293  0.88699909  0.74537678     1.49700
Zn620      Zn  0.82132158  0.89664504  0.69507142     1.49400
Zn621      Zn  0.79542512  0.83822647  0.74443932     1.49100
Zn622      Zn  0.72803881  0.85652268  0.66670424     1.49500
O623        O  0.76362708  0.86978134  0.71342424    -1.83600
O624        O  0.72906006  0.92599542  0.75247542    -0.74200
O625        O  0.89641222  0.88525548  0.71974549    -0.74000
O626        O  0.76578598  0.83660564  0.80074105    -0.73600
O627        O  0.80277820  0.93493404  0.71530152    -0.74200
O628        O  0.70343447  0.87034957  0.80146880    -0.73800
O629        O  0.87663685  0.84594511  0.75268413    -0.74400
O630        O  0.73116483  0.81577459  0.66589620    -0.73800
O631        O  0.82916746  0.89918879  0.63416406    -0.74600
O632        O  0.78362229  0.80089894  0.71676494    -0.74000
O633        O  0.76625684  0.86853631  0.61712348    -0.74400
O634        O  0.65041949  0.87007963  0.66158116    -0.74300
O635        O  0.62872075  0.88814939  0.71904556    -0.74100
C636        C  0.76605344  0.94238894  0.73958609     0.77700
C637        C  0.91059528  0.86489543  0.74264091     0.78200
C638        C  0.73107366  0.85113010  0.81924962     0.77100
C639        C  0.75618012  0.79640880  0.68503228     0.77500
C640        C  0.80419887  0.88542056  0.60780161     0.78600
C641        C  0.61584752  0.88169971  0.68377942     0.77700
Zn642      Zn  0.72896677  0.86167073  0.25762256     1.49700
Zn643      Zn  0.70810000  0.89728286  0.18041436     1.49400
Zn644      Zn  0.82458821  0.90318694  0.23344473     1.49100
Zn645      Zn  0.79550905  0.84801324  0.18168425     1.49500
O646        O  0.76535526  0.87798160  0.21286197    -1.83600
O647        O  0.65252270  0.87546722  0.26214750    -0.74200
O648        O  0.73464548  0.93600048  0.17287981    -0.74000
O649        O  0.83123916  0.90166844  0.29530331    -0.73600
O650        O  0.63181329  0.89873561  0.20629712    -0.74200
O651        O  0.76715750  0.87019729  0.30776618    -0.73800
O652        O  0.80747596  0.94286564  0.21266016    -0.74400
O653        O  0.87591477  0.85580278  0.17456565    -0.73800
O654        O  0.70101677  0.88178964  0.12506074    -0.74600
O655        O  0.90039487  0.89209676  0.20992276    -0.74000
O656        O  0.76296281  0.84786894  0.12590643    -0.74400
O657        O  0.78514635  0.80974947  0.20827867    -0.74300
O658        O  0.73031335  0.82091226  0.25762140    -0.74100
C659        C  0.61874381  0.88947113  0.24059474     0.77700
C660        C  0.77206877  0.95153210  0.18672206     0.78200
C661        C  0.80523397  0.88590160  0.31964336     0.77100
C662        C  0.91208182  0.87300838  0.18591051     0.77500
C663        C  0.72664104  0.86265925  0.10762774     0.78600
C664        C  0.75677526  0.80305244  0.23860085     0.77700
C665        C  0.76528933  0.74789874  0.31524523     0.80800
N666        N  0.75934318  0.77278051  0.29644020    -0.77500
C667        C  0.75883735  0.77503965  0.25621779     0.83200
N668        N  0.76319292  0.75190546  0.23427138    -0.77500
C669        C  0.76809159  0.72678904  0.25344541     0.83300
N670        N  0.76996956  0.72508197  0.29357438    -0.79200
C671        C  0.76203967  0.74781866  0.60392690     0.80800
N672        N  0.75743715  0.77087244  0.62515119    -0.77500
C673        C  0.75788104  0.76968194  0.66535949     0.83200
N674        N  0.76163985  0.74462318  0.68496460    -0.77500
C675        C  0.76537269  0.72118286  0.66339208     0.83300
N676        N  0.76640360  0.72304259  0.62319162    -0.79200
C677        C  0.77421705  0.49245581  0.81833521     0.80800
N678        N  0.76948203  0.96883797  0.79842731    -0.77500
C679        C  0.76978157  0.96914413  0.75826433     0.83200
N680        N  0.77339789  0.49363471  0.73729628    -0.77500
C681        C  0.77749555  0.51758029  0.75751242     0.83300
N682        N  0.77845708  0.51668003  0.79776840    -0.79200
C683        C  0.78322036  0.50330036  0.10601486     0.80800
N684        N  0.77785180  0.97925908  0.12686751    -0.77500
C685        C  0.77786324  0.97873931  0.16709502     0.83200
N686        N  0.78171705  0.50287650  0.18705251    -0.77500
C687        C  0.78673657  0.52720401  0.16578238     0.83300
N688        N  0.78791628  0.52701701  0.12563986    -0.79200
Zn689      Zn  0.74128431  0.58898599  0.67804958     1.49700
Zn690      Zn  0.71456029  0.64589740  0.72755300     1.49400
Zn691      Zn  0.80807870  0.60422894  0.75498593     1.49100
Zn692      Zn  0.82926182  0.63786336  0.67594854     1.49500
O693        O  0.77226857  0.61956912  0.70854903    -1.83600
O694        O  0.66001822  0.59666839  0.67135248    -0.74200
O695        O  0.70871493  0.64717321  0.78883560    -0.74000
O696        O  0.80333014  0.56368437  0.75750515    -0.73600
O697        O  0.63890994  0.63427615  0.70501825    -0.74200
O698        O  0.75302772  0.55080138  0.70585996    -0.73800
O699        O  0.77229026  0.61565117  0.80442124    -0.74400
O700        O  0.90665089  0.63710815  0.70181242    -0.73800
O701        O  0.73192244  0.68486957  0.70564381    -0.74600
O702        O  0.88580856  0.61599572  0.75891781    -0.74000
O703        O  0.80618103  0.67745606  0.66881622    -0.74400
O704        O  0.83194344  0.62295139  0.62017895    -0.74300
O705        O  0.77134409  0.58867318  0.62172010    -0.74100
C706        C  0.62520094  0.61459457  0.68247962     0.77700
C707        C  0.73505433  0.63236516  0.81466285     0.78200
C708        C  0.77913411  0.54511184  0.73815625     0.77100
C709        C  0.92001615  0.62848536  0.73667446     0.77500
C710        C  0.76881810  0.69336966  0.68156229     0.78600
C711        C  0.80582775  0.60379875  0.60294529     0.77700
Zn712      Zn  0.75175446  0.59742934  0.24094235     1.49700
Zn713      Zn  0.71812749  0.65430354  0.18892667     1.49400
Zn714      Zn  0.83817466  0.64670856  0.23752416     1.49100
Zn715      Zn  0.81269308  0.61448893  0.16122035     1.49500
O716        O  0.77912792  0.62851519  0.20756278    -1.83600
O717        O  0.67054384  0.60396027  0.24856117    -0.74200
O718        O  0.73424895  0.69260491  0.21043685    -0.74000
O719        O  0.84556024  0.63153728  0.29407457    -0.73600
O720        O  0.64389323  0.64128582  0.21281604    -0.74200
O721        O  0.78509262  0.59726642  0.29682702    -0.73800
O722        O  0.81349198  0.68539014  0.24380496    -0.74400
O723        O  0.89055402  0.62688611  0.15486503    -0.73800
O724        O  0.70920570  0.65714927  0.12764167    -0.74600
O725        O  0.91372584  0.64710670  0.21075060    -0.74000
O726        O  0.77251616  0.62635158  0.11192101    -0.74400
O727        O  0.80904784  0.57378684  0.16221616    -0.74300
O728        O  0.76393646  0.55954398  0.21592046    -0.74100
C729        C  0.63339111  0.62123195  0.23702263     0.77700
C730        C  0.77312894  0.70081564  0.23303148     0.72600
C731        C  0.82069048  0.61252013  0.31355822     0.77100
C732        C  0.92577975  0.63905166  0.17632330     0.77500
C733        C  0.73409024  0.64310556  0.10183405     0.78600
C734        C  0.78785161  0.55458965  0.18341595     0.77700
C735        C  0.53325333  0.60929269  0.31649654     0.80800
N736        N  0.58037598  0.61246289  0.29596965    -0.77500
C737        C  0.57937202  0.61882198  0.25654469     0.83200
N738        N  0.52974429  0.62211944  0.23705347    -0.77500
C739        C  0.48187371  0.61793274  0.25755530     0.83300
N740        N  0.48427283  0.61167213  0.29703753    -0.79200
C741        C  0.51858856  0.60990193  0.60475410     0.80800
N742        N  0.56740441  0.60951820  0.62453757    -0.77500
C743        C  0.56987338  0.61384680  0.66412061     0.83200
N744        N  0.52232204  0.61824609  0.68459025    -0.77500
C745        C  0.47288195  0.61818086  0.66459766     0.83300
N746        N  0.47185635  0.61436143  0.62492861    -0.79200
C747        C  0.27364579  0.50140135  0.81852492     0.80800
N748        N  0.27311344  0.52621629  0.79906142    -0.77500
C749        C  0.26540520  0.52800880  0.75912556     0.83200
N750        N  0.25847406  0.50444143  0.73810739    -0.77500
C751        C  0.26019479  0.97937548  0.75792670     0.83300
N752        N  0.26790116  0.97824199  0.79773914    -0.79200
C753        C  0.26293031  0.50431474  0.10648880     0.80800
N754        N  0.26177994  0.97974552  0.12642619    -0.77500
C755        C  0.26036145  0.97853638  0.16667197     0.83200
N756        N  0.26193150  0.50231143  0.18759518    -0.77500
C757        C  0.26331016  0.52709447  0.16723267     0.83300
N758        N  0.26344107  0.52771634  0.12706578    -0.79200
C759        C  0.01880593  0.64902147  0.81313436     0.80800
N760        N  0.97211134  0.64278503  0.79327540    -0.77500
C761        C  0.97322241  0.63532208  0.75492558     0.83200
N762        N  0.02247467  0.63337675  0.73601030    -0.77500
C763        C  0.06997744  0.63957331  0.75607012     0.83300
N764        N  0.06766852  0.64746979  0.79437453    -0.79200
C765        C  0.03082712  0.65251250  0.10056925     0.80800
N766        N  0.98201496  0.64930827  0.11908212    -0.77500
C767        C  0.98010680  0.64455599  0.15895881     0.83200
N768        N  0.02803612  0.64252331  0.18069971    -0.77500
C769        C  0.07730030  0.64522570  0.16181896     0.83300
N770        N  0.07798087  0.65007072  0.12203917    -0.79200
Zn771      Zn  0.30338440  0.64398325  0.66334845     1.49700
Zn772      Zn  0.21091083  0.60367225  0.69457607     1.49400
Zn773      Zn  0.32992739  0.61112925  0.74369027     1.49100
Zn774      Zn  0.24165593  0.66053714  0.74112995     1.49500
O775        O  0.27090360  0.62938495  0.71115265    -1.83600
O776        O  0.27090975  0.62869836  0.61385574    -0.74200
O777        O  0.22838056  0.56466873  0.71770468    -0.74000
O778        O  0.40712936  0.61284815  0.71743672    -0.73600
O779        O  0.20235444  0.60166448  0.63367879    -0.74200
O780        O  0.38294509  0.63509422  0.66141167    -0.73800
O781        O  0.30710632  0.57134580  0.75118534    -0.74400
O782        O  0.27260820  0.66057933  0.79698093    -0.73800
O783        O  0.13678229  0.61655013  0.71704371    -0.74600
O784        O  0.33335503  0.62609303  0.79989789    -0.74000
O785        O  0.16087929  0.65462001  0.74852134    -0.74400
O786        O  0.25290318  0.69851443  0.71392840    -0.74300
O787        O  0.29307031  0.68450170  0.65924236    -0.74100
C788        C  0.23109533  0.61273543  0.60610900     0.77700
C789        C  0.26759107  0.55581161  0.74041458     0.78200
C790        C  0.41904398  0.62284356  0.68317299     0.77100
C791        C  0.30699293  0.64540034  0.81647895     0.77500
C792        C  0.12487291  0.63699402  0.73852713     0.78600
C793        C  0.27338955  0.70361428  0.67994937     0.77700
Zn794      Zn  0.33790420  0.65301802  0.19264282     1.49700
Zn795      Zn  0.22039438  0.64569138  0.24290845     1.49400
Zn796      Zn  0.24278812  0.61424037  0.16492728     1.49100
Zn797      Zn  0.30869756  0.59595329  0.24317900     1.49500
O798        O  0.27834624  0.62753726  0.21158884    -1.83600
O799        O  0.32167436  0.69165889  0.21299344    -0.74200
O800        O  0.14300708  0.64677823  0.21601267    -0.74000
O801        O  0.27844747  0.62595951  0.11430136    -0.73600
O802        O  0.24560758  0.68472254  0.24872571    -0.74200
O803        O  0.34458531  0.65483599  0.13167211    -0.73800
O804        O  0.16593108  0.62710353  0.16003374    -0.74400
O805        O  0.29244146  0.55821231  0.21790438    -0.73800
O806        O  0.21636298  0.62946205  0.29975280    -0.74600
O807        O  0.24433822  0.57387493  0.16541210    -0.74000
O808        O  0.27970865  0.59615358  0.29935162    -0.74400
O809        O  0.39097518  0.60187533  0.24991790    -0.74300
O810        O  0.41323139  0.64045471  0.21615878    -0.74100
C811        C  0.28448972  0.70018351  0.23623691     0.77700
C812        C  0.13084963  0.63916317  0.18113088     0.78200
C813        C  0.31753152  0.64213254  0.10519807     0.77100
C814        C  0.26564677  0.55408831  0.18581494     0.77500
C815        C  0.24453517  0.61047738  0.31771717     0.78600
C816        C  0.42640449  0.61991140  0.23900916     0.77700
C817        C  0.25607072  0.59582514  0.43042786     0.16500
C818        C  0.27514056  0.58896478  0.46888464    -0.32500
C819        C  0.24405007  0.59798592  0.50084908     0.20900
C820        C  0.19540944  0.61276297  0.49492893     0.03100
C821        C  0.17641402  0.61978779  0.45629475    -0.22300
C822        C  0.20822338  0.61120283  0.42418476     0.12300
S823        S  0.28954715  0.58774701  0.38809351    -0.05900
C824        C  0.23945460  0.60574570  0.36118949    -0.09400
C825        C  0.19861607  0.61715365  0.38442239    -0.26000
S826        S  0.16542851  0.62285545  0.53801055    -0.03200
C827        C  0.21948141  0.60736583  0.56403364    -0.16700
C828        C  0.25821713  0.59505246  0.54027131    -0.14700
H829        H  0.31337948  0.57766501  0.47369014     0.20700
H830        H  0.13930158  0.63199884  0.45151232     0.16800
H831        H  0.16447334  0.62958827  0.37294173     0.19300
H832        H  0.29619348  0.58559064  0.55122927     0.12600
C833        C  0.30271485  0.66178498  0.92754302     0.16500
C834        C  0.28883102  0.67145329  0.96496893    -0.32500
C835        C  0.31276145  0.65811627  0.99850032     0.20900
C836        C  0.34907931  0.63614910  0.99492824     0.03100
C837        C  0.36305099  0.62650685  0.95744946    -0.22300
C838        C  0.33893915  0.63979514  0.92387949     0.12300
S839        S  0.27595611  0.67433736  0.88352020    -0.05900
C840        C  0.31369513  0.64966235  0.85960244    -0.09400
C841        C  0.34549697  0.63275924  0.88496103    -0.26000
S842        S  0.37060675  0.62156775  0.03929940    -0.03200
C843        C  0.33085370  0.64549635  0.06291804    -0.16700
C844        C  0.30201344  0.66349874  0.03744311    -0.14700
H845        H  0.25971156  0.68827833  0.96785236     0.20700
H846        H  0.39054950  0.60900968  0.95462378     0.16800
H847        H  0.37069347  0.61568610  0.87557080     0.19300
H848        H  0.27255053  0.67875783  0.04690516     0.12600
C849        C  0.99015511  0.65925959  0.92304502     0.16500
C850        C  0.96647697  0.65939107  0.96067299    -0.32500
C851        C  0.00223931  0.65946617  0.99358645     0.20900
C852        C  0.05902742  0.66003706  0.98920350     0.03100
C853        C  0.08269640  0.66042439  0.95153648    -0.22300
C854        C  0.04695018  0.65971042  0.91864212     0.12300
S855        S  0.95396449  0.65635096  0.87981096    -0.05900
C856        C  0.01601435  0.65519370  0.85549858    -0.09400
C857        C  0.06208028  0.65763589  0.87984766    -0.26000
S858        S  0.09536261  0.65843783  0.03276271    -0.03200
C859        C  0.03340286  0.65660446  0.05722210    -0.16700
C860        C  0.98723866  0.65762897  0.03257997    -0.14700
H861        H  0.92218714  0.65842412  0.96418066     0.20700
H862        H  0.12704375  0.66026159  0.94808283     0.16800
H863        H  0.10435219  0.65660572  0.86999072     0.19300
H864        H  0.94504464  0.65625394  0.04256904     0.12600
C865        C  0.27639850  0.98557831  0.93022837     0.16500
C866        C  0.27206834  0.97334440  0.96815118    -0.32500
C867        C  0.27138570  0.99092909  0.00035665     0.20900
C868        C  0.27531970  0.51936949  0.99505168     0.03100
C869        C  0.28026975  0.53157225  0.95717932    -0.22300
C870        C  0.28026099  0.51402076  0.92495245     0.12300
S871        S  0.27464276  0.96797167  0.88730360    -0.05900
C872        C  0.27835963  0.49931366  0.86192542    -0.09400
C873        C  0.28187960  0.52204976  0.88578081    -0.26000
S874        S  0.27297299  0.53717760  0.03773251    -0.03200
C875        C  0.26632639  0.50596106  0.06308163    -0.16700
C876        C  0.26623063  0.98306904  0.03941903    -0.14700
H877        H  0.26842568  0.95115296  0.97231004     0.20700
H878        H  0.28305033  0.55379541  0.95297803     0.16800
H879        H  0.28368212  0.54333800  0.87506729     0.19300
H880        H  0.26254294  0.96185969  0.05016926     0.12600
C881        C  0.56034756  0.60200801  0.42858531     0.16500
C882        C  0.58354305  0.60123544  0.46684974    -0.32500
C883        C  0.54749577  0.60294900  0.49886147     0.20900
C884        C  0.49087743  0.60499268  0.49305314     0.03100
C885        C  0.46765595  0.60540538  0.45484418    -0.22300
C886        C  0.50372044  0.60402349  0.42284254     0.12300
S887        S  0.59713507  0.60209028  0.38582028    -0.05900
C888        C  0.53555442  0.60507111  0.35988805    -0.09400
C889        C  0.48920417  0.60560090  0.38349938    -0.26000
S890        S  0.45432194  0.60802602  0.53552137    -0.03200
C891        C  0.51597734  0.60670915  0.56151383    -0.16700
C892        C  0.56217685  0.60380497  0.53815243    -0.14700
H893        H  0.62778181  0.60002498  0.47142495     0.20700
H894        H  0.42352108  0.60735773  0.45023159     0.16800
H895        H  0.44724799  0.60799745  0.37253581     0.19300
H896        H  0.60429168  0.60299899  0.54920596     0.12600
C897        C  0.80574637  0.58850210  0.49118499     0.16500
C898        C  0.79326525  0.57941306  0.45294764    -0.32500
C899        C  0.81556100  0.59419508  0.42049045     0.20900
C900        C  0.84960968  0.61674270  0.42589789     0.03100
C901        C  0.86263753  0.62563302  0.46415396    -0.22300
C902        C  0.83959121  0.61112351  0.49658720     0.12300
S903        S  0.77920603  0.57476575  0.53415940    -0.05900
C904        C  0.81365865  0.59987328  0.55989137    -0.09400
C905        C  0.84451241  0.61765143  0.53588912    -0.26000
S906        S  0.86960028  0.63293686  0.38271421    -0.03200
C907        C  0.83098322  0.60937908  0.35689336    -0.16700
C908        C  0.80492042  0.58980183  0.38102471    -0.14700
H909        H  0.76588433  0.56211395  0.44863523     0.20700
H910        H  0.88821019  0.64361999  0.46840069     0.16800
H911        H  0.86763853  0.63511539  0.54645234     0.19300
H912        H  0.77762971  0.57392664  0.37035348     0.12600
C913        C  0.72130436  0.62178175  0.92680012     0.16500
C914        C  0.72668720  0.61102722  0.96543145    -0.32500
C915        C  0.71851375  0.62893693  0.99647727     0.20900
C916        C  0.70414680  0.65643094  0.98985123     0.03100
C917        C  0.69771207  0.66725860  0.95066907    -0.22300
C918        C  0.70715431  0.64924517  0.91915458     0.12300
S919        S  0.73551629  0.60340057  0.88612836    -0.05900
C920        C  0.72284652  0.63277625  0.85746918    -0.09400
C921        C  0.70728621  0.65570728  0.87887228    -0.26000
S922        S  0.69981090  0.67467455  0.03285197    -0.03200
C923        C  0.71899856  0.64488006  0.05918464    -0.16700
C924        C  0.72681230  0.62229450  0.03564680    -0.14700
H925        H  0.73892407  0.58971516  0.97110082     0.20700
H926        H  0.68776106  0.68885276  0.94503350     0.16800
H927        H  0.69949619  0.67611849  0.86599549     0.19300
H928        H  0.74016534  0.60205507  0.04662066     0.12600
C929        C  0.78496755  0.51548704  0.99353135     0.16500
C930        C  0.78792791  0.52648038  0.95482459    -0.32500
C931        C  0.78083070  0.50823541  0.92376081     0.20900
C932        C  0.77117973  0.98031362  0.93086043     0.03100
C933        C  0.76815487  0.96932215  0.96956788    -0.22300
C934        C  0.77538706  0.98755315  0.00064188     0.12300
S935        S  0.79252053  0.53416857  0.03522161    -0.05900
C936        C  0.78285282  0.50396822  0.06252219    -0.09400
C937        C  0.77419411  0.98079095  0.04023195    -0.26000
S938        S  0.76414042  0.96158744  0.88914869    -0.03200
C939        C  0.77431188  0.49172194  0.86184247    -0.16700
C940        C  0.78253996  0.51494468  0.88417879    -0.14700
H941        H  0.79561054  0.54825443  0.94915346     0.20700
H942        H  0.76067800  0.94751978  0.97521192     0.16800
H943        H  0.76717875  0.96013796  0.05229707     0.19300
H944        H  0.78962825  0.53559840  0.87213495     0.12600
C945        C  0.75828575  0.76391318  0.49222909     0.16500
C946        C  0.75301274  0.77620539  0.45435503    -0.32500
C947        C  0.76168942  0.75944367  0.42192919     0.20900
C948        C  0.77513964  0.73165651  0.42687955     0.03100
C949        C  0.78060686  0.71934547  0.46481219    -0.22300
C950        C  0.77162354  0.73611621  0.49729626     0.12300
S951        S  0.74880722  0.78075882  0.53520826    -0.05900
C952        C  0.76253789  0.74999023  0.56042574    -0.09400
C953        C  0.77402873  0.72795803  0.53646994    -0.26000
S954        S  0.78282955  0.71479493  0.38363607    -0.03200
C955        C  0.76760605  0.74554462  0.35870351    -0.16700
C956        C  0.75755043  0.76757332  0.38288020    -0.14700
H957        H  0.74206641  0.79782314  0.45030180     0.20700
H958        H  0.79089515  0.69763283  0.46881277     0.16800
H959        H  0.78367491  0.70714506  0.54711203     0.19300
H960        H  0.74717716  0.78835603  0.37247349     0.12600
C961        C  0.81935479  0.86999618  0.43107643     0.16500
C962        C  0.81344773  0.85772304  0.46876918    -0.32500
C963        C  0.82015317  0.87443920  0.50152738     0.20900
C964        C  0.83383647  0.90212862  0.49734318     0.03100
C965        C  0.84058984  0.91445495  0.45927608    -0.22300
C966        C  0.83246934  0.89774765  0.42610808     0.12300
S967        S  0.80669420  0.85340850  0.38829409    -0.05900
C968        C  0.81841589  0.88406702  0.36256951    -0.09400
C969        C  0.83262314  0.90598122  0.38645824    -0.26000
S970        S  0.83728669  0.91880838  0.54163234    -0.03200
C971        C  0.81851016  0.88822318  0.56538422    -0.16700
C972        C  0.81131987  0.86644469  0.54011027    -0.14700
H973        H  0.80198743  0.83621187  0.47239918     0.20700
H974        H  0.84984013  0.93623767  0.45565794     0.16800
H975        H  0.83933132  0.92696973  0.37568811     0.19300
H976        H  0.79844593  0.84587513  0.54942812     0.12600
C977        C  0.74151080  0.83765657  0.93235400     0.16500
C978        C  0.75944382  0.83067814  0.97112223    -0.32500
C979        C  0.73359997  0.84377997  0.00258944     0.20900
C980        C  0.69123446  0.86271066  0.99580803     0.03100
C981        C  0.67288603  0.86945593  0.95705257    -0.22300
C982        C  0.69930827  0.85667392  0.92553691     0.12300
S983        S  0.77043378  0.82571433  0.89012699    -0.05900
C984        C  0.72568897  0.84678462  0.86274367    -0.09400
C985        C  0.68996315  0.86194336  0.88571960    -0.26000
S986        S  0.66776486  0.87765763  0.03777280    -0.03200
C987        C  0.71595095  0.85846134  0.06486793    -0.16700
C988        C  0.74768317  0.84111379  0.04211487    -0.14700
H989        H  0.79325738  0.81630878  0.97645995     0.20700
H990        H  0.64060504  0.88467394  0.95163591     0.16800
H991        H  0.66024668  0.87690422  0.87396918     0.19300
H992        H  0.78098617  0.82811884  0.05364680     0.12600
C993        C  0.48218554  0.90627128  0.49530093     0.16500
C994        C  0.45792349  0.90690171  0.45744281    -0.32500
C995        C  0.49313372  0.90788063  0.42489207     0.20900
C996        C  0.54998134  0.90863246  0.42980331     0.03100
C997        C  0.57427245  0.90822838  0.46771055    -0.22300
C998        C  0.53903956  0.90678957  0.50029863     0.12300
S999        S  0.44650284  0.90363848  0.53831911    -0.05900
C1000       C  0.50879672  0.90283790  0.56348648    -0.09400
C1001       C  0.55465398  0.90483185  0.53947150    -0.26000
S1002       S  0.58555988  0.90851248  0.38660332    -0.03200
C1003       C  0.52318841  0.90698997  0.36165018    -0.16700
C1004       C  0.47745364  0.90706724  0.38582532    -0.14700
H1005       H  0.41357473  0.90600338  0.45354117     0.20700
H1006       H  0.61866647  0.90833760  0.47161111     0.16800
H1007       H  0.59701866  0.90433378  0.55001551     0.19300
H1008       H  0.43511872  0.90567653  0.37549927     0.12600
C1009       C  0.21614624  0.87635203  0.43060902     0.16500
C1010       C  0.22399673  0.86583235  0.46918782    -0.32500
C1011       C  0.21050554  0.88279507  0.50039393     0.20900
C1012       C  0.18896471  0.90910886  0.49400447     0.03100
C1013       C  0.18030376  0.91967854  0.45485347    -0.22300
C1014       C  0.19485483  0.90266291  0.42315356     0.12300
S1015       S  0.23490669  0.85921152  0.38975362    -0.05900
C1016       C  0.21455717  0.88760294  0.36116329    -0.09400
C1017       C  0.19330397  0.90925019  0.38285270    -0.26000
S1018       S  0.17851657  0.92645507  0.53730533    -0.03200
C1019       C  0.20481129  0.89796945  0.56349413    -0.16700
C1020       C  0.21932600  0.87637753  0.53957234    -0.14700
H1021       H  0.24165921  0.84547668  0.47472114     0.20700
H1022       H  0.16453923  0.94041460  0.44938325     0.16800
H1023       H  0.18008984  0.92901208  0.37014059     0.19300
H1024       H  0.23745799  0.85702656  0.55032377     0.12600
C1025       C  0.28202921  0.84553588  0.92969581     0.16500
C1026       C  0.26367808  0.83773662  0.96768557    -0.32500
C1027       C  0.29068573  0.84910396  0.00041633     0.20900
C1028       C  0.33431065  0.86725770  0.99550654     0.03100
C1029       C  0.35276097  0.87498349  0.95751823    -0.22300
C1030       C  0.32540711  0.86384101  0.92477653     0.12300
S1031       S  0.25293445  0.83514951  0.88629732    -0.05900
C1032       C  0.29920483  0.85593230  0.86104743    -0.09400
C1033       C  0.33543008  0.86992455  0.88546652    -0.26000
S1034       S  0.35981119  0.87983189  0.03878555    -0.03200
C1035       C  0.31094752  0.86063576  0.06396368    -0.16700
C1036       C  0.27723270  0.84511845  0.03962328    -0.14700
H1037       H  0.22908545  0.82387721  0.97152602     0.20700
H1038       H  0.38617010  0.88954812  0.95363603     0.16800
H1039       H  0.36630384  0.88442467  0.87507586     0.19300
H1040       H  0.24330464  0.83243836  0.04990238     0.12600
C1041       C  0.04946344  0.84649880  0.93143669     0.16500
C1042       C  0.07391840  0.84737434  0.96928327    -0.32500
C1043       C  0.03884782  0.84902838  0.00190322     0.20900
C1044       C  0.98196131  0.84903709  0.99708239     0.03100
C1045       C  0.95751591  0.84754775  0.95932692    -0.22300
C1046       C  0.99257406  0.84664706  0.92663904     0.12300
S1047       S  0.08477113  0.84773693  0.88799990    -0.05900
C1048       C  0.02226950  0.84911522  0.86296301    -0.09400
C1049       C  0.97669908  0.84783643  0.88742248    -0.26000
S1050       S  0.94656837  0.85291568  0.03993023    -0.03200
C1051       C  0.00901079  0.85494467  0.06475162    -0.16700
C1052       C  0.05466531  0.85227856  0.04072442    -0.14700
H1053       H  0.11832641  0.84793202  0.97299111     0.20700
H1054       H  0.91311322  0.84822530  0.95548258     0.16800
H1055       H  0.93425291  0.84926813  0.87717808     0.19300
H1056       H  0.09710273  0.85354472  0.05086031     0.12600
C1057       C  0.30213345  0.73650721  0.42751750     0.16500
C1058       C  0.30001308  0.72508841  0.46597219    -0.32500
C1059       C  0.29488441  0.74335274  0.49710425     0.20900
C1060       C  0.29223256  0.77174999  0.49041718     0.03100
C1061       C  0.29458766  0.78319372  0.45192507    -0.22300
C1062       C  0.29947969  0.76489439  0.42075759     0.12300
S1063       S  0.30609353  0.71776070  0.38569845    -0.05900
C1064       C  0.30370105  0.74850109  0.35875493    -0.09400
C1065       C  0.30067666  0.77192896  0.38129955    -0.26000
S1066       S  0.28547683  0.79029153  0.53228721    -0.03200
C1067       C  0.28627270  0.75938381  0.55898957    -0.16700
C1068       C  0.29143748  0.73613396  0.53637988    -0.14700
H1069       H  0.30167396  0.70292643  0.47136471     0.20700
H1070       H  0.29226779  0.80532359  0.44645015     0.16800
H1071       H  0.29785825  0.79293754  0.36944182     0.19300
H1072       H  0.29244750  0.71504142  0.54802988     0.12600
loop_ 
_geom_bond_atom_site_label_1 
_geom_bond_atom_site_label_2 
_geom_bond_distance 
_geom_bond_site_symmetry_2 
_ccdc_geom_bond_type 
C1            N2   1.348       .  A
C1            N6   1.347       .  A
C1          C528   1.467       .  S
N2            C3   1.356       .  A
C3            N4   1.369       .  A
C3          C275   1.461       .  S
N4            C5   1.367       .  A
C5            N6   1.356       .  A
C5           C65   1.470       .  S
C7            N8   1.346       .  A
C7           N12   1.348       .  A
C7          C531   1.467       .  S
N8            C9   1.358       .  A
C9           N10   1.367       .  A
C9           C45   1.467       .  S
N10          C11   1.368       .  A
C11          N12   1.357       .  A
C11         C257   1.468       .  S
C13          N14   1.352       .  A
C13          N18   1.355   1_455  A
C13         C512   1.479       .  S
N14          C15   1.358       .  A
C15          N16   1.367       .  A
C15          C44   1.474       .  S
N16          C17   1.370   1_455  A
C17          N18   1.362       .  A
C17         C101   1.476       .  S
C19          N20   1.350   1_455  A
C19          N24   1.355       .  A
C19         C515   1.478       .  S
N20          C21   1.357       .  A
C21          N22   1.371   1_655  A
C21         C126   1.479       .  S
N22          C23   1.373       .  A
C23          N24   1.363       .  A
C23          C66   1.482       .  S
Zn25         O29   2.021       .  S
Zn25         O30   2.077       .  S
Zn25         O34   2.089       .  S
Zn25         O41   2.099       .  S
Zn26         O29   1.976       .  S
Zn26         O31   2.041       .  S
Zn26         O33   1.994       .  S
Zn26         O37   2.076       .  S
Zn27         O29   1.970       .  S
Zn27         O32   1.988       .  S
Zn27         O35   2.018       .  S
Zn27         O38   2.060       .  S
Zn28         O29   1.899       .  S
Zn28         O36   1.958       .  S
Zn28         O39   1.971       .  S
Zn28         O40   1.969       .  S
O30          C42   1.281       .  A
O31          C43   1.276       .  A
O32          C44   1.272       .  A
O33          C42   1.275       .  A
O34          C44   1.282       .  A
O35          C43   1.273       .  A
O36          C45   1.267       .  A
O37          C46   1.275       .  A
O38          C45   1.274       .  A
O39          C46   1.269       .  A
O40          C47   1.267       .  A
O41          C47   1.279       .  A
C42         C215   1.468       .  S
C43         C496   1.480       .  S
C46          C81   1.472       .  S
C47         C483   1.485       .  S
Zn48         O52   1.907       .  S
Zn48         O53   1.963       .  S
Zn48         O57   1.976       .  S
Zn48         O64   1.988       .  S
Zn49         O52   1.977       .  S
Zn49         O54   2.026       .  S
Zn49         O56   2.075       .  S
Zn49         O60   2.039       .  S
Zn50         O52   2.013       .  S
Zn50         O55   2.096       .  S
Zn50         O58   2.081       .  S
Zn50         O61   2.062       .  S
Zn51         O52   1.968       .  S
Zn51         O59   1.980       .  S
Zn51         O62   2.025       .  S
Zn51         O63   2.057       .  S
O53          C65   1.269       .  A
O54          C66   1.278       .  A
O55          C67   1.279       .  A
O56          C65   1.278       .  A
O57          C67   1.268       .  A
O58          C66   1.281       .  A
O59          C68   1.272       .  A
O60          C69   1.275       .  A
O61          C68   1.279       .  A
O62          C69   1.274       .  A
O63          C70   1.273       .  A
O64          C70   1.269       .  A
C67         C480   1.484       .  S
C68         C219   1.461       .  S
C69         C499   1.481       .  S
C70          C75   1.471       .  S
C71          N72   1.348       .  A
C71          N76   1.353       .  A
C71         C467   1.471       .  S
N72          C73   1.355       .  A
C73          N74   1.366       .  A
C73         C123   1.466       .  S
N74          C75   1.367       .  A
C75          N76   1.361       .  A
C77          N78   1.352       .  A
C77          N82   1.347       .  A
C77         C464   1.471       .  S
N78          C79   1.361       .  A
C79          N80   1.371       .  A
C79         C105   1.474       .  S
N80          C81   1.369       .  A
C81          N82   1.355       .  A
Zn83         O87   1.974       .  S
Zn83         O88   1.992       .  S
Zn83         O92   2.038       .  S
Zn83         O99   2.062       .  S
Zn84         O87   2.005       .  S
Zn84         O89   2.059       .  S
Zn84         O91   2.044       .  S
Zn84         O95   2.067       .  S
Zn85         O87   1.975       .  S
Zn85         O90   2.040       .  S
Zn85         O93   2.023       .  S
Zn85         O96   2.077       .  S
Zn86         O87   1.917       .  S
Zn86         O94   1.974       .  S
Zn86         O97   1.996       .  S
Zn86         O98   1.995       .  S
O88         C100   1.273       .  A
O89         C101   1.278       .  A
O90         C102   1.276       .  A
O91         C100   1.276       .  A
O92         C102   1.276       .  A
O93         C101   1.277       .  A
O94         C103   1.270       .  A
O95         C104   1.276       .  A
O96         C103   1.279       .  A
O97         C104   1.270       .  A
O98         C105   1.272       .  A
O99         C105   1.275       .  A
C100        C143   1.459       .  S
C102        C448   1.485       .  S
C103        C137   1.472       .  S
C104        C435   1.480       .  S
Zn106       O110   1.912       .  S
Zn106       O111   1.977       .  S
Zn106       O115   1.975       .  S
Zn106       O122   1.973       .  S
Zn107       O110   1.973       .  S
Zn107       O112   1.994       .  S
Zn107       O114   2.058       .  S
Zn107       O118   2.039       .  S
Zn108       O110   2.018       .  S
Zn108       O113   2.091       .  S
Zn108       O116   2.064       .  S
Zn108       O119   2.086       .  S
Zn109       O110   1.961       .  S
Zn109       O117   2.004       .  S
Zn109       O120   2.033       .  S
Zn109       O121   2.052       .  S
O111        C123   1.269       .  A
O112        C124   1.274       .  A
O113        C125   1.279       .  A
O114        C123   1.274       .  A
O115        C125   1.267       .  A
O116        C124   1.279       .  A
O117        C126   1.275       .  A
O118        C127   1.275       .  A
O119        C126   1.280       .  A
O120        C127   1.274       .  A
O121        C128   1.275       .  A
O122        C128   1.269       .  A
C124        C149   1.465       .  S
C125        C432   1.480       .  S
C127        C451   1.483       .  S
C128        C131   1.465       .  S
C129        N130   1.351       .  A
C129        N134   1.348       .  A
C129        C419   1.469       .  S
N130        C131   1.359       .  A
C131        N132   1.365       .  A
N132        C133   1.364       .  A
C133        N134   1.355       .  A
C133        C194   1.457       .  S
C135        N136   1.349       .  A
C135        N140   1.350       .  A
C135        C416   1.469       .  S
N136        C137   1.357       .  A
C137        N138   1.367       .  A
N138        C139   1.369       .  A
C139        N140   1.358       .  A
C139        C174   1.464       .  S
C141        N146   1.350   1_565  A
C141        N678   1.348       .  A
C141        C403   1.468       .  S
N142        C143   1.356       .  A
N142        C677   1.348       .  A
C143        N680   1.366       .  A
N144        C145   1.365   1_565  A
N144        C679   1.366       .  A
C145        N146   1.358       .  A
C145        C172   1.468       .  S
C147        N152   1.347       .  A
C147        N684   1.350   1_545  A
C147        C400   1.468       .  S
N148        C149   1.357       .  A
N148        C683   1.350       .  A
C149        N686   1.369       .  A
N150        C151   1.368       .  A
N150        C685   1.369   1_545  A
C151        N152   1.356       .  A
C151        C198   1.469       .  S
Zn153       O157   1.974       .  S
Zn153       O158   2.013       .  S
Zn153       O162   2.065       .  S
Zn153       O169   2.045       .  S
Zn154       O157   2.012       .  S
Zn154       O159   2.078       .  S
Zn154       O161   2.064       .  S
Zn154       O165   2.053       .  S
Zn155       O157   1.912       .  S
Zn155       O160   1.965       .  S
Zn155       O163   1.983       .  S
Zn155       O166   1.976       .  S
Zn156       O157   1.974       .  S
Zn156       O164   2.060       .  S
Zn156       O167   2.001       .  S
Zn156       O168   2.038       .  S
O158        C170   1.276       .  A
O159        C171   1.276       .  A
O160        C172   1.268       .  A
O161        C170   1.279       .  A
O162        C172   1.276       .  A
O163        C171   1.268       .  A
O164        C173   1.275       .  A
O165        C174   1.278       .  A
O166        C173   1.269       .  A
O167        C174   1.274       .  A
O168        C175   1.275       .  A
O169        C175   1.276       .  A
C170        C207   1.472       .  S
C171        C384   1.479       .  S
C173        C225   1.466       .  S
C175        C368   1.486       .  S
Zn176       O180   1.975       .  S
Zn176       O181   2.014       .  S
Zn176       O185   2.043       .  S
Zn176       O192   2.063       .  S
Zn177       O180   2.014       .  S
Zn177       O182   2.048       .  S
Zn177       O184   2.075       .  S
Zn177       O188   2.078       .  S
Zn178       O180   1.969       .  S
Zn178       O183   2.031       .  S
Zn178       O186   1.981       .  S
Zn178       O189   2.053       .  S
Zn179       O180   1.913       .  S
Zn179       O187   1.996       .  S
Zn179       O190   1.987       .  S
Zn179       O191   1.972       .  S
O181        C193   1.276       .  A
O182        C194   1.277       .  A
O183        C195   1.274       .  A
O184        C193   1.279       .  A
O185        C195   1.276       .  A
O186        C194   1.272       .  A
O187        C196   1.271       .  A
O188        C197   1.277       .  A
O189        C196   1.274       .  A
O190        C197   1.269       .  A
O191        C198   1.270       .  A
O192        C198   1.276       .  A
C193        C201   1.477       .  S
C195        C371   1.484       .  S
C196        C231   1.471       .  S
C197        C387   1.481       .  S
C199        N200   1.351       .  A
C199        N204   1.353       .  A
C199        C352   1.473       .  S
N200        C201   1.357       .  A
C201        N202   1.371       .  A
N202        C203   1.372       .  A
C203        N204   1.359       .  A
C203        C280   1.478       .  S
C205        N206   1.352       .  A
C205        N210   1.349       .  A
C205        C355   1.473       .  S
N206        C207   1.359       .  A
C207        N208   1.371       .  A
N208        C209   1.369       .  A
C209        N210   1.357       .  A
C209        C254   1.475       .  S
C211        N212   1.352       .  A
C211        N752   1.347   1_545  A
C211        C336   1.469   1_545  S
N212        C213   1.359       .  A
C213        N214   1.371       .  A
C213        C253   1.471       .  S
N214        C751   1.369   1_545  A
C215        N216   1.354       .  A
C215        N750   1.369       .  A
N216        C747   1.347       .  A
C217        N222   1.346       .  A
C217        N754   1.350   1_545  A
C217        C339   1.469       .  S
N218        C219   1.359       .  A
N218        C753   1.350       .  A
C219        N756   1.368       .  A
N220        C221   1.366       .  A
N220        C755   1.368   1_545  A
C221        N222   1.355       .  A
C221        C278   1.467       .  S
C223        N224   1.349   1_455  A
C223        N228   1.353       .  A
C223        C320   1.472       .  S
N224        C225   1.355       .  A
C225        N226   1.366   1_655  A
N226        C227   1.368       .  A
C227        N228   1.361       .  A
C227        C256   1.470       .  S
C229        N230   1.353   1_455  A
C229        N234   1.349       .  A
C229        C323   1.473       .  S
N230        C231   1.360       .  A
C231        N232   1.369   1_655  A
N232        C233   1.366       .  A
C233        N234   1.357       .  A
C233        C276   1.470       .  S
Zn235       O239   1.922       .  S
Zn235       O240   2.001       .  S
Zn235       O244   1.977       .  S
Zn235       O251   1.976       .  S
Zn236       O239   2.004       .  S
Zn236       O241   2.062       .  S
Zn236       O243   2.069       .  S
Zn236       O247   2.061       .  S
Zn237       O239   1.982       .  S
Zn237       O242   2.082       .  S
Zn237       O245   2.015       .  S
Zn237       O248   2.051       .  S
Zn238       O239   1.975       .  S
Zn238       O246   2.021       .  S
Zn238       O249   1.999       .  S
Zn238       O250   2.051       .  S
O240        C252   1.269       .  A
O241        C253   1.279       .  A
O242        C254   1.278       .  A
O243        C252   1.276       .  A
O244        C254   1.270       .  A
O245        C253   1.276       .  A
O246        C255   1.273       .  A
O247        C256   1.278       .  A
O248        C255   1.277       .  A
O249        C256   1.273       .  A
O250        C257   1.274       .  A
O251        C257   1.271       .  A
C252        C291   1.475       .  S
C255        C304   1.483       .  S
Zn258       O262   2.002       .  S
Zn258       O263   2.049       .  S
Zn258       O267   2.066       .  S
Zn258       O274   2.065       .  S
Zn259       O262   1.986       .  S
Zn259       O264   2.074       .  S
Zn259       O266   2.002       .  S
Zn259       O270   2.056       .  S
Zn260       O262   1.915       .  S
Zn260       O265   1.994       .  S
Zn260       O268   1.966       .  S
Zn260       O271   1.954       .  S
Zn261       O262   1.973       .  S
Zn261       O269   2.076       .  S
Zn261       O272   2.031       .  S
Zn261       O273   2.028       .  S
O263        C275   1.278       .  A
O264        C276   1.276       .  A
O265        C277   1.267       .  A
O266        C275   1.274       .  A
O267        C277   1.276       .  A
O268        C276   1.268       .  A
O269        C278   1.277       .  A
O270        C279   1.277       .  A
O271        C278   1.268       .  A
O272        C279   1.275       .  A
O273        C280   1.277       .  A
O274        C280   1.277       .  A
C277        C307   1.472       .  S
C279        C288   1.485       .  S
C281        S287   1.707       .  A
C281        C286   1.386       .  A
C281        C282   1.403       .  A
C282        C283   1.403       .  A
C282        H293   1.083       .  S
C283        C292   1.373       .  A
C283        C284   1.386       .  A
C284        S290   1.717       .  A
C284        C285   1.409       .  A
C285        C286   1.410       .  A
C285        H294   1.082       .  S
C286        C289   1.381       .  A
S287        C288   1.725       .  A
C288        C289   1.393       .  A
C289        H295   1.083       .  S
S290        C291   1.725       .  A
C291        C292   1.387       .  A
C292        H296   1.083       .  S
C297        S303   1.708       .  A
C297        C302   1.386       .  A
C297        C298   1.404       .  A
C298        C299   1.404       .  A
C298        H309   1.083       .  S
C299        C308   1.376   1_556  A
C299        C300   1.387       .  A
C300        S306   1.712   1_556  A
C300        C301   1.406       .  A
C301        C302   1.406       .  A
C301        H310   1.083       .  S
C302        C305   1.378       .  A
S303        C304   1.727       .  A
C304        C305   1.391       .  A
C305        H311   1.083       .  S
S306        C307   1.723       .  A
C307        C308   1.387       .  A
C308        H312   1.083       .  S
C313        S319   1.703       .  A
C313        C318   1.387   1_655  A
C313        C314   1.401       .  A
C314        C315   1.401   1_655  A
C314        H325   1.083       .  S
C315        C324   1.371   1_456  A
C315        C316   1.387       .  A
C316        S322   1.704   1_556  A
C316        C317   1.401       .  A
C317        C318   1.402       .  A
C317        H326   1.083       .  S
C318        C321   1.371       .  A
S319        C320   1.725   1_655  A
C320        C321   1.386       .  A
C321        H327   1.083       .  S
S322        C323   1.725       .  A
C323        C324   1.386   1_455  A
C324        H328   1.083       .  S
C329        S335   1.703       .  A
C329        C330   1.400       .  A
C329        C870   1.388       .  A
C330        C331   1.400   1_556  A
C330        H341   1.083       .  S
C331        C340   1.369       .  A
C331        C868   1.388   1_554  A
C332        S338   1.702   1_556  A
C332        C333   1.399       .  A
C332        C867   1.388   1_546  A
C333        C334   1.400       .  A
C333        H342   1.083       .  S
C334        C337   1.368       .  A
C334        C865   1.388   1_545  A
S335        C872   1.724       .  A
C336        S871   1.724       .  A
C336        C337   1.385   1_565  A
C337        H343   1.083       .  S
S338        C339   1.724       .  A
C339        C876   1.385   1_545  A
C340        C875   1.385       .  A
C340        H344   1.083       .  S
C345        S351   1.706       .  A
C345        C350   1.387       .  A
C345        C346   1.402       .  A
C346        C347   1.403       .  A
C346        H357   1.083       .  S
C347        C356   1.371       .  A
C347        C348   1.387       .  A
C348        S354   1.705       .  A
C348        C349   1.401       .  A
C349        C350   1.401       .  A
C349        H358   1.083       .  S
C350        C353   1.370       .  A
S351        C352   1.725       .  A
C352        C353   1.387       .  A
C353        H359   1.083       .  S
S354        C355   1.724       .  A
C355        C356   1.387       .  A
C356        H360   1.083       .  S
C361        S367   1.712       .  A
C361        C366   1.386       .  A
C361        C362   1.406       .  A
C362        C363   1.406       .  A
C362        H373   1.083       .  S
C363        C372   1.377       .  A
C363        C364   1.386       .  A
C364        S370   1.711       .  A
C364        C365   1.406       .  A
C365        C366   1.406       .  A
C365        H374   1.083       .  S
C366        C369   1.377       .  A
S367        C368   1.727       .  A
C368        C369   1.392       .  A
C369        H375   1.083       .  S
S370        C371   1.727       .  A
C371        C372   1.391       .  A
C372        H376   1.083       .  S
C377        S383   1.696       .  A
C377        C382   1.387       .  A
C377        C378   1.394       .  A
C378        C379   1.395       .  A
C378        H389   1.083       .  S
C379        C388   1.364   1_556  A
C379        C380   1.385       .  A
C380        S386   1.725   1_556  A
C380        C381   1.415       .  A
C381        C382   1.415       .  A
C381        H390   1.083       .  S
C382        C385   1.386       .  A
S383        C384   1.721       .  A
C384        C385   1.395       .  A
C385        H391   1.083       .  S
S386        C387   1.731       .  A
C387        C388   1.384       .  A
C388        H392   1.084       .  S
C393        S399   1.703   1_556  A
C393        C394   1.399       .  A
C393        C934   1.388   1_546  A
C394        C395   1.400       .  A
C394        H405   1.083       .  S
C395        C404   1.367       .  A
C395        C932   1.387   1_545  A
C396        S402   1.704       .  A
C396        C397   1.399       .  A
C396        C931   1.387       .  A
C397        C398   1.400   1_556  A
C397        H406   1.083       .  S
C398        C401   1.367       .  A
C398        C929   1.388   1_554  A
S399        C400   1.723       .  A
C400        C937   1.385   1_545  A
C401        C936   1.385       .  A
C401        H407   1.083       .  S
S402        C939   1.723       .  A
C403        S938   1.723       .  A
C403        C404   1.385   1_565  A
C404        H408   1.083       .  S
C409        S415   1.703       .  A
C409        C414   1.388       .  A
C409        C410   1.399       .  A
C410        C411   1.399       .  A
C410        H421   1.083       .  S
C411        C420   1.367       .  A
C411        C412   1.387       .  A
C412        S418   1.705       .  A
C412        C413   1.401       .  A
C413        C414   1.402       .  A
C413        H422   1.083       .  S
C414        C417   1.369       .  A
S415        C416   1.723       .  A
C416        C417   1.386       .  A
C417        H423   1.083       .  S
S418        C419   1.724       .  A
C419        C420   1.384       .  A
C420        H424   1.083       .  S
C425        S431   1.698       .  A
C425        C430   1.387       .  A
C425        C426   1.398       .  A
C426        C427   1.398       .  A
C426        H437   1.083       .  S
C427        C436   1.368       .  A
C427        C428   1.386       .  A
C428        S434   1.721       .  A
C428        C429   1.413       .  A
C429        C430   1.412       .  A
C429        H438   1.083       .  S
C430        C433   1.385       .  A
S431        C432   1.724       .  A
C432        C433   1.393       .  A
C433        H439   1.083       .  S
S434        C435   1.728       .  A
C435        C436   1.386       .  A
C436        H440   1.084       .  S
C441        S447   1.711       .  A
C441        C446   1.386       .  A
C441        C442   1.405       .  A
C442        C443   1.406   1_556  A
C442        H453   1.083       .  S
C443        C452   1.375       .  A
C443        C444   1.386   1_554  A
C444        S450   1.712   1_556  A
C444        C445   1.406       .  A
C445        C446   1.406       .  A
C445        H454   1.083       .  S
C446        C449   1.377       .  A
S447        C448   1.727       .  A
C448        C449   1.391       .  A
C449        H455   1.083       .  S
S450        C451   1.726       .  A
C451        C452   1.391       .  A
C452        H456   1.083       .  S
C457        S463   1.702       .  A
C457        C462   1.387       .  A
C457        C458   1.400       .  A
C458        C459   1.400       .  A
C458        H469   1.083       .  S
C459        C468   1.370       .  A
C459        C460   1.387       .  A
C460        S466   1.704       .  A
C460        C461   1.402       .  A
C461        C462   1.402       .  A
C461        H470   1.083       .  S
C462        C465   1.371       .  A
S463        C464   1.724       .  A
C464        C465   1.386       .  A
C465        H471   1.083       .  S
S466        C467   1.725       .  A
C467        C468   1.385       .  A
C468        H472   1.083       .  S
C473        S479   1.696       .  A
C473        C478   1.387       .  A
C473        C474   1.395       .  A
C474        C475   1.396       .  A
C474        H485   1.083       .  S
C475        C484   1.364       .  A
C475        C476   1.385       .  A
C476        S482   1.728       .  A
C476        C477   1.416       .  A
C477        C478   1.416       .  A
C477        H486   1.082       .  S
C478        C481   1.388       .  A
S479        C480   1.723       .  A
C480        C481   1.396       .  A
C481        H487   1.082       .  S
S482        C483   1.731       .  A
C483        C484   1.386       .  A
C484        H488   1.084       .  S
C489        S495   1.708       .  A
C489        C494   1.387       .  A
C489        C490   1.404       .  A
C490        C491   1.405   1_556  A
C490        H501   1.083       .  S
C491        C500   1.375       .  A
C491        C492   1.387   1_554  A
C492        S498   1.709   1_556  A
C492        C493   1.404       .  A
C493        C494   1.404       .  A
C493        H502   1.083       .  S
C494        C497   1.376       .  A
S495        C496   1.726       .  A
C496        C497   1.389       .  A
C497        H503   1.083       .  S
S498        C499   1.726       .  A
C499        C500   1.390       .  A
C500        H504   1.083       .  S
C505        S511   1.707       .  A
C505        C510   1.387   1_455  A
C505        C506   1.404       .  A
C506        C507   1.404   1_556  A
C506        H517   1.083       .  S
C507        C516   1.375       .  A
C507        C508   1.387   1_454  A
C508        S514   1.706   1_556  A
C508        C509   1.403       .  A
C509        C510   1.403       .  A
C509        H518   1.083       .  S
C510        C513   1.374       .  A
S511        C512   1.726       .  A
C512        C513   1.388   1_455  A
C513        H519   1.083       .  S
S514        C515   1.726   1_655  A
C515        C516   1.388       .  A
C516        H520   1.083       .  S
C521        S527   1.704       .  A
C521        C526   1.387       .  A
C521        C522   1.398       .  A
C522        C523   1.399       .  A
C522        H533   1.083       .  S
C523        C532   1.365       .  A
C523        C524   1.387       .  A
C524        S530   1.706       .  A
C524        C525   1.399       .  A
C525        C526   1.401       .  A
C525        H534   1.083       .  S
C526        C529   1.366       .  A
S527        C528   1.721       .  A
C528        C529   1.386       .  A
C529        H535   1.083       .  S
S530        C531   1.724       .  A
C531        C532   1.384       .  A
C532        H536   1.083       .  S
C537        N538   1.348       .  A
C537        N542   1.347       .  A
C537       C1064   1.467       .  S
N538        C539   1.356       .  A
C539        N540   1.369       .  A
C539        C811   1.461       .  S
N540        C541   1.367       .  A
C541        N542   1.356       .  A
C541        C601   1.470       .  S
C543        N544   1.346       .  A
C543        N548   1.348       .  A
C543       C1067   1.467       .  S
N544        C545   1.358       .  A
C545        N546   1.367       .  A
C545        C581   1.467       .  S
N546        C547   1.368       .  A
C547        N548   1.357       .  A
C547        C793   1.468       .  S
C549        N550   1.352       .  A
C549        N554   1.355   1_455  A
C549       C1048   1.479       .  S
N550        C551   1.358       .  A
C551        N552   1.367       .  A
C551        C580   1.474       .  S
N552        C553   1.370   1_455  A
C553        N554   1.362       .  A
C553        C637   1.476       .  S
C555        N556   1.350   1_455  A
C555        N560   1.355       .  A
C555       C1051   1.478       .  S
N556        C557   1.357       .  A
C557        N558   1.371   1_655  A
C557        C662   1.479       .  S
N558        C559   1.373       .  A
C559        N560   1.363       .  A
C559        C602   1.482       .  S
Zn561       O565   2.021       .  S
Zn561       O566   2.077       .  S
Zn561       O570   2.089       .  S
Zn561       O577   2.099       .  S
Zn562       O565   1.976       .  S
Zn562       O567   2.041       .  S
Zn562       O569   1.994       .  S
Zn562       O573   2.076       .  S
Zn563       O565   1.970       .  S
Zn563       O568   1.988       .  S
Zn563       O571   2.018       .  S
Zn563       O574   2.060       .  S
Zn564       O565   1.899       .  S
Zn564       O572   1.958       .  S
Zn564       O575   1.971       .  S
Zn564       O576   1.969       .  S
O566        C578   1.281       .  A
O567        C579   1.276       .  A
O568        C580   1.272       .  A
O569        C578   1.275       .  A
O570        C580   1.282       .  A
O571        C579   1.273       .  A
O572        C581   1.267       .  A
O573        C582   1.275       .  A
O574        C581   1.274       .  A
O575        C582   1.269       .  A
O576        C583   1.267       .  A
O577        C583   1.279       .  A
C578        C751   1.469       .  S
C579       C1032   1.480       .  S
C582        C617   1.472       .  S
C583       C1019   1.485       .  S
Zn584       O588   1.907       .  S
Zn584       O589   1.964       .  S
Zn584       O593   1.976       .  S
Zn584       O600   1.988       .  S
Zn585       O588   1.977       .  S
Zn585       O590   2.026       .  S
Zn585       O592   2.075       .  S
Zn585       O596   2.039       .  S
Zn586       O588   2.013       .  S
Zn586       O591   2.096       .  S
Zn586       O594   2.081       .  S
Zn586       O597   2.062       .  S
Zn587       O588   1.968       .  S
Zn587       O595   1.980       .  S
Zn587       O598   2.025       .  S
Zn587       O599   2.057       .  S
O589        C601   1.269       .  A
O590        C602   1.278       .  A
O591        C603   1.279       .  A
O592        C601   1.278       .  A
O593        C603   1.268       .  A
O594        C602   1.281       .  A
O595        C604   1.272       .  A
O596        C605   1.275       .  A
O597        C604   1.279       .  A
O598        C605   1.274       .  A
O599        C606   1.273       .  A
O600        C606   1.269       .  A
C603       C1016   1.484       .  S
C604        C755   1.461       .  S
C605       C1035   1.481       .  S
C606        C611   1.471       .  S
C607        N608   1.348       .  A
C607        N612   1.353       .  A
C607       C1003   1.471       .  S
N608        C609   1.355       .  A
C609        N610   1.366       .  A
C609        C659   1.466       .  S
N610        C611   1.367       .  A
C611        N612   1.361       .  A
C613        N614   1.352       .  A
C613        N618   1.347       .  A
C613       C1000   1.471       .  S
N614        C615   1.361       .  A
C615        N616   1.371       .  A
C615        C641   1.474       .  S
N616        C617   1.369       .  A
C617        N618   1.355       .  A
Zn619       O623   1.974       .  S
Zn619       O624   1.992       .  S
Zn619       O628   2.038       .  S
Zn619       O635   2.062       .  S
Zn620       O623   2.005       .  S
Zn620       O625   2.059       .  S
Zn620       O627   2.044       .  S
Zn620       O631   2.067       .  S
Zn621       O623   1.975       .  S
Zn621       O626   2.040       .  S
Zn621       O629   2.023       .  S
Zn621       O632   2.077       .  S
Zn622       O623   1.917       .  S
Zn622       O630   1.974       .  S
Zn622       O633   1.996       .  S
Zn622       O634   1.995       .  S
O624        C636   1.272       .  A
O625        C637   1.278       .  A
O626        C638   1.276       .  A
O627        C636   1.276       .  A
O628        C638   1.275       .  A
O629        C637   1.277       .  A
O630        C639   1.270       .  A
O631        C640   1.276       .  A
O632        C639   1.279       .  A
O633        C640   1.270       .  A
O634        C641   1.272       .  A
O635        C641   1.275       .  A
C636        C679   1.459       .  S
C638        C984   1.485       .  S
C639        C673   1.472       .  S
C640        C971   1.480       .  S
Zn642       O646   1.912       .  S
Zn642       O647   1.977       .  S
Zn642       O651   1.974       .  S
Zn642       O658   1.973       .  S
Zn643       O646   1.973       .  S
Zn643       O648   1.994       .  S
Zn643       O650   2.058       .  S
Zn643       O654   2.039       .  S
Zn644       O646   2.018       .  S
Zn644       O649   2.092       .  S
Zn644       O652   2.064       .  S
Zn644       O655   2.086       .  S
Zn645       O646   1.961       .  S
Zn645       O653   2.004       .  S
Zn645       O656   2.033       .  S
Zn645       O657   2.052       .  S
O647        C659   1.269       .  A
O648        C660   1.274       .  A
O649        C661   1.279       .  A
O650        C659   1.274       .  A
O651        C661   1.267       .  A
O652        C660   1.279       .  A
O653        C662   1.275       .  A
O654        C663   1.275       .  A
O655        C662   1.280       .  A
O656        C663   1.274       .  A
O657        C664   1.275       .  A
O658        C664   1.269       .  A
C660        C685   1.465       .  S
C661        C968   1.480       .  S
C663        C987   1.483       .  S
C664        C667   1.465       .  S
C665        N666   1.351       .  A
C665        N670   1.348       .  A
C665        C955   1.469       .  S
N666        C667   1.359       .  A
C667        N668   1.365       .  A
N668        C669   1.364       .  A
C669        N670   1.355       .  A
C669        C730   1.457       .  S
C671        N672   1.349       .  A
C671        N676   1.350       .  A
C671        C952   1.469       .  S
N672        C673   1.357       .  A
C673        N674   1.367       .  A
N674        C675   1.369       .  A
C675        N676   1.358       .  A
C675        C710   1.464       .  S
C677        N682   1.350       .  A
C677        C939   1.468       .  S
N678        C679   1.356       .  A
N680        C681   1.365       .  A
C681        N682   1.358       .  A
C681        C708   1.468       .  S
C683        N688   1.347       .  A
C683        C936   1.468       .  S
N684        C685   1.357       .  A
N686        C687   1.368       .  A
C687        N688   1.356       .  A
C687        C734   1.469       .  S
Zn689       O693   1.974       .  S
Zn689       O694   2.013       .  S
Zn689       O698   2.065       .  S
Zn689       O705   2.045       .  S
Zn690       O693   2.012       .  S
Zn690       O695   2.078       .  S
Zn690       O697   2.064       .  S
Zn690       O701   2.053       .  S
Zn691       O693   1.912       .  S
Zn691       O696   1.966       .  S
Zn691       O699   1.982       .  S
Zn691       O702   1.975       .  S
Zn692       O693   1.974       .  S
Zn692       O700   2.060       .  S
Zn692       O703   2.001       .  S
Zn692       O704   2.038       .  S
O694        C706   1.276       .  A
O695        C707   1.276       .  A
O696        C708   1.268       .  A
O697        C706   1.279       .  A
O698        C708   1.276       .  A
O699        C707   1.268       .  A
O700        C709   1.275       .  A
O701        C710   1.278       .  A
O702        C709   1.269       .  A
O703        C710   1.274       .  A
O704        C711   1.275       .  A
O705        C711   1.276       .  A
C706        C743   1.472       .  S
C707        C920   1.479       .  S
C709        C761   1.466       .  S
C711        C904   1.486       .  S
Zn712       O716   1.975       .  S
Zn712       O717   2.014       .  S
Zn712       O721   2.043       .  S
Zn712       O728   2.063       .  S
Zn713       O716   2.014       .  S
Zn713       O718   2.048       .  S
Zn713       O720   2.075       .  S
Zn713       O724   2.078       .  S
Zn714       O716   1.969       .  S
Zn714       O719   2.031       .  S
Zn714       O722   1.981       .  S
Zn714       O725   2.053       .  S
Zn715       O716   1.913       .  S
Zn715       O723   1.996       .  S
Zn715       O726   1.987       .  S
Zn715       O727   1.972       .  S
O717        C729   1.276       .  A
O718        C730   1.277       .  A
O719        C731   1.274       .  A
O720        C729   1.279       .  A
O721        C731   1.276       .  A
O722        C730   1.272       .  A
O723        C732   1.271       .  A
O724        C733   1.277       .  A
O725        C732   1.274       .  A
O726        C733   1.269       .  A
O727        C734   1.270       .  A
O728        C734   1.276       .  A
C729        C737   1.477       .  S
C731        C907   1.484       .  S
C732        C767   1.471       .  S
C733        C923   1.481       .  S
C735        N736   1.351       .  A
C735        N740   1.353       .  A
C735        C888   1.473       .  S
N736        C737   1.357       .  A
C737        N738   1.371       .  A
N738        C739   1.372       .  A
C739        N740   1.359       .  A
C739        C816   1.478       .  S
C741        N742   1.352       .  A
C741        N746   1.349       .  A
C741        C891   1.473       .  S
N742        C743   1.359       .  A
C743        N744   1.371       .  A
N744        C745   1.369       .  A
C745        N746   1.357       .  A
C745        C790   1.475       .  S
C747        N748   1.352       .  A
C747        C872   1.469       .  S
N748        C749   1.359       .  A
C749        N750   1.371       .  A
C749        C789   1.471       .  S
C751        N752   1.354       .  A
C753        N758   1.346       .  A
C753        C875   1.469       .  S
N754        C755   1.359       .  A
N756        C757   1.366       .  A
C757        N758   1.355       .  A
C757        C814   1.467       .  S
C759        N760   1.349   1_455  A
C759        N764   1.353       .  A
C759        C856   1.472       .  S
N760        C761   1.355       .  A
C761        N762   1.366   1_655  A
N762        C763   1.368       .  A
C763        N764   1.361       .  A
C763        C792   1.470       .  S
C765        N766   1.353   1_455  A
C765        N770   1.349       .  A
C765        C859   1.473       .  S
N766        C767   1.360       .  A
C767        N768   1.369   1_655  A
N768        C769   1.366       .  A
C769        N770   1.357       .  A
C769        C812   1.470       .  S
Zn771       O775   1.922       .  S
Zn771       O776   2.001       .  S
Zn771       O780   1.977       .  S
Zn771       O787   1.977       .  S
Zn772       O775   2.004       .  S
Zn772       O777   2.062       .  S
Zn772       O779   2.069       .  S
Zn772       O783   2.061       .  S
Zn773       O775   1.982       .  S
Zn773       O778   2.082       .  S
Zn773       O781   2.015       .  S
Zn773       O784   2.052       .  S
Zn774       O775   1.975       .  S
Zn774       O782   2.021       .  S
Zn774       O785   1.999       .  S
Zn774       O786   2.051       .  S
O776        C788   1.269       .  A
O777        C789   1.279       .  A
O778        C790   1.278       .  A
O779        C788   1.276       .  A
O780        C790   1.270       .  A
O781        C789   1.276       .  A
O782        C791   1.273       .  A
O783        C792   1.278       .  A
O784        C791   1.277       .  A
O785        C792   1.273       .  A
O786        C793   1.274       .  A
O787        C793   1.271       .  A
C788        C827   1.475       .  S
C791        C840   1.483       .  S
Zn794       O798   2.002       .  S
Zn794       O799   2.049       .  S
Zn794       O803   2.066       .  S
Zn794       O810   2.065       .  S
Zn795       O798   1.986       .  S
Zn795       O800   2.074       .  S
Zn795       O802   2.002       .  S
Zn795       O806   2.056       .  S
Zn796       O798   1.916       .  S
Zn796       O801   1.994       .  S
Zn796       O804   1.966       .  S
Zn796       O807   1.953       .  S
Zn797       O798   1.973       .  S
Zn797       O805   2.076       .  S
Zn797       O808   2.031       .  S
Zn797       O809   2.028       .  S
O799        C811   1.278       .  A
O800        C812   1.276       .  A
O801        C813   1.267       .  A
O802        C811   1.274       .  A
O803        C813   1.276       .  A
O804        C812   1.268       .  A
O805        C814   1.277       .  A
O806        C815   1.277       .  A
O807        C814   1.268       .  A
O808        C815   1.275       .  A
O809        C816   1.277       .  A
O810        C816   1.277       .  A
C813        C843   1.472       .  S
C815        C824   1.485       .  S
C817        S823   1.707       .  A
C817        C822   1.386       .  A
C817        C818   1.403       .  A
C818        C819   1.403       .  A
C818        H829   1.083       .  S
C819        C828   1.373       .  A
C819        C820   1.386       .  A
C820        S826   1.717       .  A
C820        C821   1.409       .  A
C821        C822   1.410       .  A
C821        H830   1.082       .  S
C822        C825   1.381       .  A
S823        C824   1.725       .  A
C824        C825   1.393       .  A
C825        H831   1.083       .  S
S826        C827   1.725       .  A
C827        C828   1.387       .  A
C828        H832   1.083       .  S
C833        S839   1.708       .  A
C833        C838   1.386       .  A
C833        C834   1.404       .  A
C834        C835   1.404       .  A
C834        H845   1.083       .  S
C835        C844   1.376   1_556  A
C835        C836   1.387       .  A
C836        S842   1.712   1_556  A
C836        C837   1.406       .  A
C837        C838   1.406       .  A
C837        H846   1.083       .  S
C838        C841   1.378       .  A
S839        C840   1.727       .  A
C840        C841   1.391       .  A
C841        H847   1.083       .  S
S842        C843   1.723       .  A
C843        C844   1.387       .  A
C844        H848   1.083       .  S
C849        S855   1.703       .  A
C849        C854   1.387   1_655  A
C849        C850   1.401       .  A
C850        C851   1.401   1_655  A
C850        H861   1.083       .  S
C851        C860   1.371   1_456  A
C851        C852   1.387       .  A
C852        S858   1.704   1_556  A
C852        C853   1.401       .  A
C853        C854   1.402       .  A
C853        H862   1.083       .  S
C854        C857   1.371       .  A
S855        C856   1.725   1_655  A
C856        C857   1.386       .  A
C857        H863   1.083       .  S
S858        C859   1.725       .  A
C859        C860   1.386   1_455  A
C860        H864   1.083       .  S
C865        S871   1.703       .  A
C865        C866   1.400       .  A
C866        C867   1.400   1_556  A
C866        H877   1.083       .  S
C867        C876   1.369       .  A
C868        S874   1.702   1_556  A
C868        C869   1.399       .  A
C869        C870   1.400       .  A
C869        H878   1.083       .  S
C870        C873   1.368       .  A
C872        C873   1.385       .  A
C873        H879   1.083       .  S
S874        C875   1.724       .  A
C876        H880   1.083       .  S
C881        S887   1.706       .  A
C881        C886   1.387       .  A
C881        C882   1.402       .  A
C882        C883   1.403       .  A
C882        H893   1.083       .  S
C883        C892   1.371       .  A
C883        C884   1.387       .  A
C884        S890   1.705       .  A
C884        C885   1.401       .  A
C885        C886   1.401       .  A
C885        H894   1.083       .  S
C886        C889   1.370       .  A
S887        C888   1.725       .  A
C888        C889   1.387       .  A
C889        H895   1.083       .  S
S890        C891   1.724       .  A
C891        C892   1.387       .  A
C892        H896   1.083       .  S
C897        S903   1.712       .  A
C897        C902   1.386       .  A
C897        C898   1.406       .  A
C898        C899   1.406       .  A
C898        H909   1.083       .  S
C899        C908   1.377       .  A
C899        C900   1.386       .  A
C900        S906   1.711       .  A
C900        C901   1.406       .  A
C901        C902   1.406       .  A
C901        H910   1.083       .  S
C902        C905   1.377       .  A
S903        C904   1.727       .  A
C904        C905   1.392       .  A
C905        H911   1.083       .  S
S906        C907   1.727       .  A
C907        C908   1.391       .  A
C908        H912   1.083       .  S
C913        S919   1.696       .  A
C913        C918   1.387       .  A
C913        C914   1.394       .  A
C914        C915   1.395       .  A
C914        H925   1.083       .  S
C915        C924   1.364   1_556  A
C915        C916   1.385       .  A
C916        S922   1.725   1_556  A
C916        C917   1.415       .  A
C917        C918   1.415       .  A
C917        H926   1.083       .  S
C918        C921   1.386       .  A
S919        C920   1.721       .  A
C920        C921   1.395       .  A
C921        H927   1.083       .  S
S922        C923   1.731       .  A
C923        C924   1.384       .  A
C924        H928   1.084       .  S
C929        S935   1.703   1_556  A
C929        C930   1.399       .  A
C930        C931   1.400       .  A
C930        H941   1.083       .  S
C931        C940   1.367       .  A
C932        S938   1.704       .  A
C932        C933   1.399       .  A
C933        C934   1.400   1_556  A
C933        H942   1.083       .  S
C934        C937   1.367       .  A
S935        C936   1.723       .  A
C937        H943   1.083       .  S
C939        C940   1.385       .  A
C940        H944   1.083       .  S
C945        S951   1.703       .  A
C945        C950   1.388       .  A
C945        C946   1.398       .  A
C946        C947   1.399       .  A
C946        H957   1.083       .  S
C947        C956   1.367       .  A
C947        C948   1.387       .  A
C948        S954   1.705       .  A
C948        C949   1.401       .  A
C949        C950   1.402       .  A
C949        H958   1.083       .  S
C950        C953   1.369       .  A
S951        C952   1.723       .  A
C952        C953   1.386       .  A
C953        H959   1.083       .  S
S954        C955   1.725       .  A
C955        C956   1.384       .  A
C956        H960   1.083       .  S
C961        S967   1.698       .  A
C961        C966   1.387       .  A
C961        C962   1.398       .  A
C962        C963   1.397       .  A
C962        H973   1.083       .  S
C963        C972   1.368       .  A
C963        C964   1.386       .  A
C964        S970   1.721       .  A
C964        C965   1.413       .  A
C965        C966   1.413       .  A
C965        H974   1.083       .  S
C966        C969   1.385       .  A
S967        C968   1.724       .  A
C968        C969   1.393       .  A
C969        H975   1.083       .  S
S970        C971   1.728       .  A
C971        C972   1.386       .  A
C972        H976   1.084       .  S
C977        S983   1.711       .  A
C977        C982   1.386       .  A
C977        C978   1.405       .  A
C978        C979   1.406   1_556  A
C978        H989   1.083       .  S
C979        C988   1.375       .  A
C979        C980   1.386   1_554  A
C980        S986   1.712   1_556  A
C980        C981   1.406       .  A
C981        C982   1.406       .  A
C981        H990   1.083       .  S
C982        C985   1.377       .  A
S983        C984   1.727       .  A
C984        C985   1.391       .  A
C985        H991   1.083       .  S
S986        C987   1.726       .  A
C987        C988   1.391       .  A
C988        H992   1.083       .  S
C993        S999   1.702       .  A
C993        C998   1.387       .  A
C993        C994   1.400       .  A
C994        C995   1.400       .  A
C994       H1005   1.083       .  S
C995       C1004   1.370       .  A
C995        C996   1.387       .  A
C996       S1002   1.704       .  A
C996        C997   1.402       .  A
C997        C998   1.402       .  A
C997       H1006   1.083       .  S
C998       C1001   1.371       .  A
S999       C1000   1.724       .  A
C1000      C1001   1.386       .  A
C1001      H1007   1.083       .  S
S1002      C1003   1.725       .  A
C1003      C1004   1.385       .  A
C1004      H1008   1.083       .  S
C1009      S1015   1.696       .  A
C1009      C1014   1.387       .  A
C1009      C1010   1.395       .  A
C1010      C1011   1.396       .  A
C1010      H1021   1.083       .  S
C1011      C1020   1.364       .  A
C1011      C1012   1.385       .  A
C1012      S1018   1.728       .  A
C1012      C1013   1.416       .  A
C1013      C1014   1.417       .  A
C1013      H1022   1.082       .  S
C1014      C1017   1.388       .  A
S1015      C1016   1.723       .  A
C1016      C1017   1.396       .  A
C1017      H1023   1.082       .  S
S1018      C1019   1.731       .  A
C1019      C1020   1.386       .  A
C1020      H1024   1.084       .  S
C1025      S1031   1.708       .  A
C1025      C1030   1.387       .  A
C1025      C1026   1.404       .  A
C1026      C1027   1.405   1_556  A
C1026      H1037   1.083       .  S
C1027      C1036   1.375       .  A
C1027      C1028   1.387   1_554  A
C1028      S1034   1.709   1_556  A
C1028      C1029   1.404       .  A
C1029      C1030   1.404       .  A
C1029      H1038   1.083       .  S
C1030      C1033   1.376       .  A
S1031      C1032   1.726       .  A
C1032      C1033   1.389       .  A
C1033      H1039   1.083       .  S
S1034      C1035   1.726       .  A
C1035      C1036   1.390       .  A
C1036      H1040   1.083       .  S
C1041      S1047   1.707       .  A
C1041      C1046   1.387   1_455  A
C1041      C1042   1.404       .  A
C1042      C1043   1.404   1_556  A
C1042      H1053   1.083       .  S
C1043      C1052   1.375       .  A
C1043      C1044   1.387   1_454  A
C1044      S1050   1.706   1_556  A
C1044      C1045   1.403       .  A
C1045      C1046   1.403       .  A
C1045      H1054   1.083       .  S
C1046      C1049   1.374       .  A
S1047      C1048   1.726       .  A
C1048      C1049   1.388   1_455  A
C1049      H1055   1.083       .  S
S1050      C1051   1.726   1_655  A
C1051      C1052   1.388       .  A
C1052      H1056   1.083       .  S
C1057      S1063   1.704       .  A
C1057      C1062   1.387       .  A
C1057      C1058   1.398       .  A
C1058      C1059   1.399       .  A
C1058      H1069   1.083       .  S
C1059      C1068   1.365       .  A
C1059      C1060   1.387       .  A
C1060      S1066   1.706       .  A
C1060      C1061   1.399       .  A
C1061      C1062   1.401       .  A
C1061      H1070   1.083       .  S
C1062      C1065   1.366       .  A
S1063      C1064   1.721       .  A
C1064      C1065   1.386       .  A
C1065      H1071   1.083       .  S
S1066      C1067   1.724       .  A
C1067      C1068   1.384       .  A
C1068      H1072   1.083       .  S
