geometry optimzed in LAMMPS
_audit_creation_date              2020-12-01 
_audit_creation_method            'lammps2cif' 
_symmetry_space_group_name_H-M    'P1' 
_symmetry_Int_Tables_number       1 
_symmetry_cell_setting            triclinic 
loop_ 
_symmetry_equiv_pos_as_xyz 
  x,y,z 
_cell_length_a                    56.53499291 
_cell_length_b                    56.51519545961178 
_cell_length_c                    35.378387990319204 
_cell_angle_alpha                 89.82208214175122 
_cell_angle_beta                  89.96190257611526 
_cell_angle_gamma                 89.53581798628122 
loop_ 
_atom_site_label 
_atom_site_type_symbol 
_atom_site_fract_x 
_atom_site_fract_y 
_atom_site_fract_z 
_atom_site_charge 
N1          N  0.26571790  0.49139334  0.06566304    -0.02700
C2          C  0.26093269  0.47020102  0.04968605    -0.00100
C3          C  0.25058534  0.47339583  0.01465804    -0.23000
C4          C  0.24902082  0.49748880  0.00873503    -0.23200
C5          C  0.25842945  0.50809128  0.04044864    -0.00200
H6          H  0.24527748  0.45967716  0.99525014     0.13600
H7          H  0.24249303  0.50628584  0.98356914     0.13600
N8          N  0.30769843  0.48785682  0.34135030    -0.02700
C9          C  0.31056113  0.50804137  0.36215608    -0.00100
C10         C  0.31538998  0.50245081  0.39933675    -0.23000
C11         C  0.31575223  0.47831656  0.40184247    -0.23200
C12         C  0.31081853  0.46952640  0.36636009    -0.00200
H13         H  0.31824143  0.51471183  0.42230202     0.13600
H14         H  0.31889045  0.46814575  0.42715152     0.13600
N15         N  0.05158960  0.74239038  0.28548193    -0.02700
C16         C  0.07070951  0.73959504  0.26276009    -0.00100
C17         C  0.06448433  0.74145408  0.22517364    -0.23000
C18         C  0.04050915  0.74526576  0.22448230    -0.23200
C19         C  0.03304389  0.74564686  0.26167178    -0.00200
H20         H  0.07617246  0.74020139  0.20105570     0.13600
H21         H  0.02957173  0.74716428  0.19964575     0.13600
N22         N  0.04884715  0.72817367  0.07004131    -0.02700
C23         C  0.06744656  0.72254216  0.09331468    -0.00100
C24         C  0.05919319  0.71675293  0.12889968    -0.23000
C25         C  0.03509252  0.71898790  0.12799956    -0.23200
C26         C  0.02906175  0.72621660  0.09197896    -0.00200
H27         H  0.06971383  0.71181236  0.15322429     0.13600
H28         H  0.02314738  0.71633043  0.15145636     0.13600
O29         O  0.31056605  0.76266254  0.28209731    -0.80100
O30         O  0.31689316  0.74667038  0.45345852    -0.64800
O31         O  0.31929094  0.73606673  0.34796289    -1.11400
C32         C  0.23710610  0.72629125  0.35823547     1.06800
O33         O  0.29085887  0.71843837  0.46575447    -0.78000
O34         O  0.28120148  0.69095246  0.40506027    -0.65600
Ni35       Ni  0.33687035  0.75663719  0.31570236     1.34900
C36         C  0.28696619  0.68531943  0.37153978     0.85500
O37         O  0.35248605  0.74132557  0.40436650    -0.78500
O38         O  0.36466938  0.75083224  0.34553149    -0.88800
C39         C  0.30513722  0.73429207  0.47651048     0.85100
O40         O  0.33139519  0.78639245  0.34079145    -0.67000
O41         O  0.24167807  0.71814403  0.39099948    -0.86300
C42         C  0.32468897  0.79156412  0.37410350     0.85900
C43         C  0.36861958  0.74457442  0.37967476     1.07500
H44         H  0.27857030  0.75657616  0.39901490     0.39300
O45         O  0.28513106  0.74095650  0.39491292    -1.09000
O46         O  0.28747868  0.70068695  0.34501010    -0.65600
Ni47       Ni  0.28598482  0.73515857  0.34182547     1.26300
O48         O  0.31854279  0.77587585  0.39795394    -0.65800
O49         O  0.25263338  0.73500661  0.33657328    -0.78100
C50         C  0.29773418  0.74646135  0.26813704     0.85300
O51         O  0.28824844  0.73102438  0.28898585    -0.65300
Ni52       Ni  0.26772426  0.71912530  0.42578978     1.27400
Ni53       Ni  0.31879260  0.74169686  0.40067053     1.26100
H54         H  0.32576767  0.72037584  0.34417091     0.39900
O55         O  0.27749737  0.73274758  0.21426429    -0.80100
O56         O  0.29013760  0.73317773  0.03978045    -0.64800
O57         O  0.30109580  0.72626424  0.14465729    -1.11400
C58         C  0.31847210  0.80718417  0.14061616     1.06800
O59         O  0.32093689  0.75633353  0.02856358    -0.78000
O60         O  0.34898378  0.76073976  0.09048928    -0.65600
Ni61       Ni  0.27884732  0.70910407  0.17502759     1.34900
C62         C  0.35404432  0.75698823  0.12495687     0.85500
O63         O  0.29227545  0.69570670  0.08424329    -0.78500
O64         O  0.27878403  0.68298102  0.14015714    -0.88800
C65         C  0.30445147  0.74292473  0.01733906     0.85100
O66         O  0.25023450  0.72171352  0.15370552    -0.67000
O67         O  0.32647294  0.80245462  0.10781447    -0.86300
C68         C  0.24520939  0.72966959  0.12101617     0.85900
C69         C  0.28507453  0.67932299  0.10602601     1.07500
H70         H  0.28400560  0.77042131  0.09629305     0.39300
O71         O  0.29886989  0.76222840  0.10026467    -1.09000
O72         O  0.33841928  0.75689926  0.15086716    -0.65600
Ni73       Ni  0.30424537  0.75943859  0.15331181     1.26300
O74         O  0.26102578  0.73284921  0.09587676    -0.65800
O75         O  0.30683562  0.79260837  0.16052598    -0.78100
C76         C  0.29442055  0.74495135  0.22729860     0.85300
O77         O  0.30880223  0.75544708  0.20588188    -0.65300
Ni78       Ni  0.32258339  0.77795317  0.07064867     1.27400
Ni79       Ni  0.29509227  0.72910075  0.09194859     1.26100
H80         H  0.31630035  0.71860350  0.14775263     0.39900
N81         N  0.54918839  0.75604331  0.16734836    -0.02700
C82         C  0.52877915  0.75386645  0.14687145    -0.00100
C83         C  0.53325728  0.75701218  0.10888127    -0.23000
C84         C  0.55686707  0.76118026  0.10517748    -0.23200
C85         C  0.56642190  0.76057519  0.14106913    -0.00200
H86         H  0.52050671  0.75621266  0.08625414     0.13600
H87         H  0.56617702  0.76443797  0.07898359     0.13600
N88         N  0.55548973  0.73488984  0.45042615    -0.02700
C89         C  0.53653863  0.72621319  0.46939714    -0.00100
C90         C  0.54264024  0.72030479  0.50610014    -0.23000
C91         C  0.56613803  0.72559215  0.51015133    -0.23200
C92         C  0.57354183  0.73455976  0.47580816    -0.00200
H93         H  0.53100132  0.71368345  0.52793802     0.13600
H94         H  0.57658834  0.72356831  0.53557299     0.13600
O95         O  0.81206439  0.73707739  0.45920292    -0.80100
O96         O  0.81078561  0.75147837  0.28507202    -0.64800
O97         O  0.81727834  0.76257396  0.39041952    -1.11400
C98         C  0.73578829  0.77491617  0.38861029     1.06800
O99         O  0.78361654  0.77948057  0.27420939    -0.78000
O100        O  0.78157483  0.80786412  0.33634097    -0.65600
Ni101      Ni  0.83605286  0.74164155  0.42116131     1.34900
C102        C  0.78451599  0.81382196  0.37057403     0.85500
O103        O  0.84791404  0.75507711  0.32997556    -0.78500
O104        O  0.86211402  0.74486563  0.38718289    -0.88800
C105        C  0.79862758  0.76424432  0.26277250     0.85100
O106        O  0.82788382  0.71202602  0.39852129    -0.67000
O107        O  0.74020813  0.78545037  0.35756123    -0.86300
C108        C  0.82028580  0.70654609  0.36593315     0.85900
C109        C  0.86478302  0.74983227  0.35231051     1.07500
H110        H  0.77421203  0.74299241  0.34277944     0.39300
O111        O  0.78136618  0.75825674  0.34671440    -1.09000
O112        O  0.78403762  0.79840046  0.39709020    -0.65600
Ni113      Ni  0.78421932  0.76375776  0.39972320     1.26300
O114        O  0.81407177  0.72201222  0.34144142    -0.65800
O115        O  0.75122860  0.76366061  0.40746602    -0.78100
C116        C  0.79872176  0.75298169  0.47317963     0.85300
O117        O  0.78815589  0.76794614  0.45246450    -0.65300
Ni118      Ni  0.76379128  0.78155521  0.31846664     1.27400
Ni119      Ni  0.81464908  0.75635866  0.33767363     1.26100
H120        H  0.82373279  0.77824615  0.39330522     0.39900
O121        O  0.77662022  0.76598472  0.02705977    -0.80100
O122        O  0.78638232  0.76945798  0.19947249    -0.64800
O123        O  0.80047343  0.77430476  0.09474730    -1.11400
C124        C  0.81642619  0.69277327  0.10655465     1.06800
O125        O  0.81968497  0.74968451  0.21014910    -0.78000
O126        O  0.84806444  0.73809532  0.15139267    -0.65600
Ni127      Ni  0.78021620  0.79186639  0.06152329     1.34900
C128        C  0.85359591  0.74145036  0.11703265     0.85500
O129        O  0.78775841  0.80595489  0.15203511    -0.78500
O130        O  0.78308162  0.81937030  0.09278199    -0.88800
C131        C  0.80167785  0.76100282  0.22204241     0.85100
O132        O  0.75018341  0.78430145  0.08358882    -0.67000
O133        O  0.82256789  0.69789102  0.14020618    -0.86300
C134        C  0.74411141  0.77476417  0.11463976     0.85900
C135        C  0.78516998  0.82273225  0.12825037     1.07500
H136        H  0.78288474  0.73134268  0.14416326     0.39300
O137        O  0.79765298  0.73954942  0.14062446    -1.09000
O138        O  0.83815665  0.74294110  0.09092199    -0.65600
Ni139      Ni  0.80397464  0.74091190  0.08778453     1.26300
O140        O  0.75895694  0.76835939  0.13979973    -0.65800
O141        O  0.80723805  0.70746866  0.08330047    -0.78100
C142        C  0.79390857  0.75439278  0.01337272     0.85300
O143        O  0.80862290  0.74385359  0.03468550    -0.65300
Ni144      Ni  0.82029638  0.72474883  0.17313111     1.27400
Ni145      Ni  0.79253977  0.77265746  0.14692691     1.26100
H146        H  0.81590280  0.78145829  0.09295107     0.39900
N147        N  0.82591869  0.50672172  0.03790777    -0.02700
C148        C  0.82947375  0.52558029  0.01478731    -0.00100
C149        C  0.83098846  0.51842342  0.97755616    -0.23000
C150        C  0.82827256  0.49431165  0.97757489    -0.23200
C151        C  0.82526630  0.48757963  0.01483249    -0.00200
H152        H  0.83385838  0.52955696  0.95312586     0.13600
H153        H  0.82899129  0.48280983  0.95323067     0.13600
N154        N  0.82282427  0.50904272  0.32242294    -0.02700
C155        C  0.82563368  0.52810403  0.34589726    -0.00100
C156        C  0.82795752  0.52042113  0.38278041    -0.23000
C157        C  0.82679596  0.49626415  0.38247070    -0.23200
C158        C  0.82337520  0.48940557  0.34540470    -0.00200
H159        H  0.83041738  0.53134456  0.40740718     0.13600
H160        H  0.82803538  0.48479520  0.40695145     0.13600
N161        N  0.79436616  0.01016728  0.42633303    -0.02700
C162        C  0.79705209  0.99139377  0.40210112    -0.00100
C163        C  0.79956349  0.99949992  0.36545095    -0.23000
C164        C  0.79866655  0.02360214  0.36660794    -0.23200
C165        C  0.79523784  0.02993795  0.40380081    -0.00200
H166        H  0.80216729  0.98887179  0.34042581     0.13600
H167        H  0.80030667  0.03546022  0.34277370     0.13600
N168        N  0.78143628  0.00913722  0.20838273    -0.02700
C169        C  0.78061882  0.98944655  0.23032017    -0.00100
C170        C  0.77658971  0.99547393  0.26762208    -0.23000
C171        C  0.77500065  0.01976552  0.26877299    -0.23200
C172        C  0.77810289  0.02765522  0.23213705    -0.00200
H173        H  0.77448753  0.98344117  0.29118426     0.13600
H174        H  0.77161062  0.03051622  0.29343031     0.13600
O175        O  0.80878974  0.23476150  0.28605509    -0.80100
O176        O  0.80665156  0.25125988  0.45728354    -0.64800
O177        O  0.80268746  0.26212431  0.35178476    -1.11400
C178        C  0.88447945  0.27070590  0.35861161     1.06800
O179        O  0.83262099  0.27977304  0.46829340    -0.78000
O180        O  0.83899814  0.30689068  0.40525969    -0.65600
Ni181      Ni  0.78362557  0.24208229  0.32094730     1.34900
C182        C  0.83605195  0.31215210  0.37062109     0.85500
O183        O  0.77051449  0.25594789  0.41044186    -0.78500
O184        O  0.75670471  0.24893213  0.35210132    -0.88800
C185        C  0.81801713  0.26428883  0.47970456     0.85100
O186        O  0.78907811  0.21233629  0.34626389    -0.67000
O187        O  0.87972003  0.28113281  0.38962896    -0.86300
C188        C  0.79784546  0.20680604  0.37821926     0.85900
C189        C  0.75364311  0.25389536  0.38690444     1.07500
H190        H  0.84428280  0.24164316  0.40252440     0.39300
O191        O  0.83742546  0.25705829  0.39754531    -1.09000
O192        O  0.83655866  0.29635221  0.34485974    -0.65600
Ni193      Ni  0.83595804  0.26175135  0.34418486     1.26300
O194        O  0.80501983  0.22218232  0.40158318    -0.65800
O195        O  0.86915961  0.26043465  0.33848826    -0.78100
C196        C  0.82210953  0.25015365  0.27100594     0.85300
O197        O  0.83314621  0.26495735  0.29097373    -0.65300
Ni198      Ni  0.85457600  0.27976166  0.42641322     1.27400
Ni199      Ni  0.80401491  0.25622267  0.40463649     1.26100
H200        H  0.79676734  0.27806607  0.34828818     0.39900
O201        O  0.84118320  0.26270858  0.21512665    -0.80100
O202        O  0.82848046  0.26983921  0.04490271    -0.64800
O203        O  0.81544556  0.27340439  0.14984079    -1.11400
C204        C  0.79568112  0.19410562  0.13850128     1.06800
O205        O  0.79590672  0.24969450  0.03170049    -0.78000
O206        O  0.76686422  0.24445283  0.09386182    -0.65600
Ni207      Ni  0.83637430  0.28970162  0.18285713     1.34900
C208        C  0.76177024  0.24632642  0.12878556     0.85500
O209        O  0.82788956  0.30540100  0.09369617    -0.78500
O210        O  0.83193040  0.31792320  0.15359702    -0.88800
C211        C  0.81395979  0.26147242  0.02134017     0.85100
O212        O  0.86598521  0.28303438  0.15818657    -0.67000
O213        O  0.78714381  0.20065676  0.10674055    -0.86300
C214        C  0.87148655  0.27299828  0.12726041     0.85900
C215        C  0.82940213  0.32173693  0.11828282     1.07500
H216        H  0.83107907  0.23031973  0.09786137     0.39300
O217        O  0.81672212  0.23927713  0.10272887    -1.09000
O218        O  0.77732925  0.24391106  0.15459995    -0.65600
Ni219      Ni  0.81156274  0.24025787  0.15599969     1.26300
O220        O  0.85609268  0.26629879  0.10346442    -0.65800
O221        O  0.80796573  0.20717915  0.15982331    -0.78100
C222        C  0.82412077  0.25149116  0.22987489     0.85300
O223        O  0.80823497  0.24242516  0.20941600    -0.65300
Ni224      Ni  0.79227446  0.22647470  0.07184156     1.27400
Ni225      Ni  0.82262848  0.27223780  0.09751536     1.26100
H226        H  0.80020704  0.28106753  0.15231995     0.39900
N227        N  0.56675945  0.24730163  0.18567572    -0.02700
C228        C  0.54817845  0.24325489  0.16167556    -0.00100
C229        C  0.55603001  0.24232993  0.12476927    -0.23000
C230        C  0.57989517  0.24572208  0.12546928    -0.23200
C231        C  0.58628904  0.24897483  0.16276899    -0.00200
H232        H  0.54540686  0.23920771  0.09989201     0.13600
H233        H  0.59147194  0.24600943  0.10115391     0.13600
N234        N  0.56830182  0.26238861  0.46983624    -0.02700
C235        C  0.58788789  0.27044294  0.48770774    -0.00100
C236        C  0.58292853  0.27568866  0.52497266    -0.23000
C237        C  0.55956543  0.27049900  0.53068993    -0.23200
C238        C  0.55105623  0.26225754  0.49665323    -0.00200
H239        H  0.59533198  0.28168723  0.54600261     0.13600
H240        H  0.54997166  0.27203812  0.55701612     0.13600
N241        N  0.32328274  0.98617326  0.44827525    -0.02700
C242        C  0.32214049  0.96751686  0.42361526    -0.00100
C243        C  0.31875838  0.97583898  0.38722261    -0.23000
C244        C  0.31823682  0.99997639  0.38893401    -0.23200
C245        C  0.32107738  0.00613637  0.42633170    -0.00200
H246        H  0.31747253  0.96533166  0.36181192     0.13600
H247        H  0.31596551  0.01196181  0.36533109     0.13600
N248        N  0.33242025  0.98977733  0.22902058    -0.02700
C249        C  0.33268183  0.00753220  0.25496628    -0.00100
C250        C  0.33980850  0.99887192  0.28980165    -0.23000
C251        C  0.34416695  0.97515870  0.28541628    -0.23200
C252        C  0.33950699  0.97005736  0.24806662    -0.00200
H253        H  0.34194018  0.00881377  0.31556277     0.13600
H254        H  0.34967492  0.96283093  0.30721977     0.13600
N255        N  0.07234650  0.25543898  0.31091797    -0.02700
C256        C  0.05498924  0.25692908  0.28442930    -0.00100
C257        C  0.06374354  0.25158703  0.24895741    -0.23000
C258        C  0.08719788  0.24629972  0.25346104    -0.23200
C259        C  0.09202464  0.24888611  0.29143046    -0.00200
H260        H  0.05391499  0.25090050  0.22280880     0.13600
H261        H  0.09953582  0.24133208  0.23146442     0.13600
N262        N  0.06877251  0.27186939  0.09268852    -0.02700
C263        C  0.08721379  0.27181363  0.11778116    -0.00100
C264        C  0.07886529  0.27533112  0.15405552    -0.23000
C265        C  0.05478270  0.27716230  0.15177209    -0.23200
C266        C  0.04878908  0.27504959  0.11409480    -0.00200
H267        H  0.08926662  0.27594551  0.17969100     0.13600
H268        H  0.04275085  0.27964680  0.17525359     0.13600
O269        O  0.31191114  0.26186318  0.49867748    -0.80100
O270        O  0.30807664  0.24763333  0.32629441    -0.64800
O271        O  0.30431006  0.23601777  0.43183021    -1.11400
C272        C  0.38593798  0.22363710  0.42382228     1.06800
O273        O  0.33377647  0.21874115  0.31368863    -0.78000
O274        O  0.33970979  0.19027197  0.37550380    -0.65600
Ni275      Ni  0.28663478  0.25754861  0.46321126     1.34900
C276        C  0.33742886  0.18424369  0.40991679     0.85500
O277        O  0.27236685  0.24383523  0.37366726    -0.78500
O278        O  0.25949444  0.25427316  0.43149048    -0.88800
C279        C  0.31897344  0.23451747  0.30313610     0.85100
O280        O  0.29476481  0.28707397  0.43962355    -0.67000
O281        O  0.38090664  0.21407876  0.39226140    -0.86300
C282        C  0.30246300  0.29216858  0.40688409     0.85900
C283        C  0.25601392  0.24866063  0.39711636     1.07500
H284        H  0.34630203  0.25525252  0.38159516     0.39300
O285        O  0.33911653  0.24001600  0.38582032    -1.09000
O286        O  0.33749344  0.19960818  0.43643700    -0.65600
Ni287      Ni  0.33757425  0.23430675  0.43907133     1.26300
O288        O  0.30743084  0.27642157  0.38244782    -0.65800
O289        O  0.37080413  0.23394436  0.44463151    -0.78100
C290        C  0.32404487  0.24513831  0.51299102     0.85300
O291        O  0.33455245  0.23012835  0.49225619    -0.65300
Ni292      Ni  0.35572708  0.21721499  0.35564705     1.27400
Ni293      Ni  0.30571526  0.24230658  0.37899990     1.26100
H294        H  0.29767024  0.22046206  0.43534782     0.39900
O295        O  0.34169191  0.23278467  0.06894598    -0.80100
O296        O  0.32875860  0.22826431  0.23929673    -0.64800
O297        O  0.31510110  0.22556841  0.13452182    -1.11400
C298        C  0.30334213  0.30735458  0.14576166     1.06800
O299        O  0.29770352  0.25122486  0.25171578    -0.78000
O300        O  0.26954047  0.26192929  0.19074306    -0.65600
Ni301      Ni  0.33467737  0.20688108  0.10196596     1.34900
C302        C  0.26406162  0.26011729  0.15599985     0.85500
O303        O  0.32469041  0.19241112  0.19149148    -0.78500
O304        O  0.32821356  0.17941719  0.13193615    -0.88800
C305        C  0.31486787  0.23811026  0.26256817     0.85100
O306        O  0.36484357  0.21175749  0.12556493    -0.67000
O307        O  0.29552469  0.30208745  0.17856212    -0.86300
C308        C  0.37099243  0.22207561  0.15579648     0.85900
C309        C  0.32519333  0.17581640  0.16717142     1.07500
H310        H  0.33475485  0.26688176  0.18549841     0.39300
O311        O  0.31960081  0.25959930  0.18112888    -1.09000
O312        O  0.27971891  0.25941771  0.12995321    -0.65600
Ni313      Ni  0.31420580  0.25908957  0.12793266     1.26300
O314        O  0.35621166  0.22897487  0.18055161    -0.65800
O315        O  0.31349095  0.29265217  0.12374204    -0.78100
C316        C  0.32609266  0.24603627  0.05405645     0.85300
O317        O  0.31094695  0.25691005  0.07425590    -0.65300
Ni318      Ni  0.29725991  0.27545345  0.21274161     1.27400
Ni319      Ni  0.32246182  0.22612971  0.18689757     1.26100
H320        H  0.29922996  0.21956384  0.13206915     0.39900
C321        C  0.19793907  0.27654937  0.15445681    -0.04700
C322        C  0.18939507  0.26291792  0.12415684     0.09500
C323        C  0.20537078  0.24849048  0.10376350    -0.02000
C324        C  0.22954988  0.24700520  0.11444300    -0.00300
C325        C  0.23819312  0.26036912  0.14537121    -0.03900
C326        C  0.22206445  0.27544235  0.16492154     0.03100
C327        C  0.16321593  0.26276663  0.11578415     0.09900
C328        C  0.19686061  0.23539424  0.07141235     0.35800
C329        C  0.23022617  0.29066813  0.19513110     0.39300
C330        C  0.15260340  0.28066775  0.09335501    -0.04300
C331        C  0.12759474  0.28284869  0.09124120     0.02900
C332        C  0.11297288  0.26667973  0.11076047    -0.03900
C333        C  0.12381410  0.24771510  0.13087011    -0.00100
C334        C  0.14867648  0.24598268  0.13373857    -0.02700
C335        C  0.16752528  0.29750982  0.07388049     0.36600
C336        C  0.10927439  0.23022992  0.14981408     0.40200
C337        C  0.11720475  0.30282813  0.07144114     0.39300
C338        C  0.15933405  0.22762639  0.15705372     0.36300
C339        C  0.18180617  0.29211078  0.17464871     0.36900
C340        C  0.24525578  0.23109632  0.09417207     0.40200
N341        N  0.10941843  0.31904068  0.05557997    -0.37900
N342        N  0.17948171  0.31091268  0.05831277    -0.39500
N343        N  0.09761583  0.21624110  0.16462921    -0.37200
N344        N  0.16783964  0.21308620  0.17584627    -0.39600
N345        N  0.19001679  0.22515023  0.04539839    -0.39400
N346        N  0.25772015  0.21832239  0.07798214    -0.37000
N347        N  0.23660694  0.30285041  0.21924246    -0.38100
N348        N  0.16901802  0.30470621  0.19052224    -0.39700
C349        C  0.20013266  0.22685120  0.35061327    -0.04700
C350        C  0.18442431  0.24556559  0.35905325     0.09500
C351        C  0.19206607  0.26517064  0.38012916    -0.02000
C352        C  0.21578982  0.26659054  0.39136995    -0.00300
C353        C  0.23145207  0.24760029  0.38381558    -0.03900
C354        C  0.22353117  0.22758850  0.36370521     0.03100
C355        C  0.16066302  0.24596998  0.34170259     0.09900
C356        C  0.17566029  0.28421574  0.38908462     0.35800
C357        C  0.23933396  0.20772783  0.35647816     0.39300
C358        C  0.14257558  0.23149575  0.35604764    -0.04300
C359        C  0.12059019  0.23095174  0.33767926     0.02900
C360        C  0.11602215  0.24662681  0.30739199    -0.03900
C361        C  0.13431875  0.26092427  0.29282069    -0.00100
C362        C  0.15675305  0.26018676  0.30951460    -0.02700
C363        C  0.14654859  0.21743069  0.38985731     0.36600
C364        C  0.12988274  0.27711212  0.26161844     0.40200
C365        C  0.10343074  0.21320792  0.34830060     0.39300
C366        C  0.17585565  0.27416592  0.29378937     0.36300
C367        C  0.19238676  0.20730603  0.32725681     0.36900
C368        C  0.22446105  0.28829704  0.40807978     0.40200
N369        N  0.09018562  0.19856688  0.35655913    -0.37900
N370        N  0.14964163  0.20637245  0.41701901    -0.39500
N371        N  0.12609796  0.29007530  0.23693626    -0.37200
N372        N  0.19115453  0.28525698  0.28141705    -0.39600
N373        N  0.16262648  0.29944894  0.39619381    -0.39400
N374        N  0.23151019  0.30570956  0.42081688    -0.37000
N375        N  0.25189328  0.19188207  0.35062210    -0.38100
N376        N  0.18614342  0.19185642  0.30843313    -0.39700
C377        C  0.05539299  0.24847659  0.41420490    -0.04700
C378        C  0.07089508  0.26452122  0.43171045     0.09500
C379        C  0.08603350  0.27830075  0.40899842    -0.02000
C380        C  0.08510508  0.27661530  0.36917903    -0.00300
C381        C  0.07064512  0.25950600  0.35153857    -0.03900
C382        C  0.05583725  0.24536997  0.37456583     0.03100
C383        C  0.07156410  0.26971875  0.97144363     0.09900
C384        C  0.10286866  0.29396069  0.42682429     0.35800
C385        C  0.04213066  0.22647433  0.35823724     0.39300
C386        C  0.08120912  0.25092294  0.99300435    -0.04300
C387        C  0.08018704  0.25146470  0.03289735     0.02900
C388        C  0.07019394  0.27119835  0.05173478    -0.03900
C389        C  0.06171457  0.29053481  0.02998907    -0.00100
C390        C  0.06189423  0.28957226  0.99012318    -0.02700
C391        C  0.09216046  0.23093514  0.97396468     0.36600
C392        C  0.05422148  0.31215998  0.04841866     0.40200
C393        C  0.08846611  0.23111612  0.05415620     0.39300
C394        C  0.05209752  0.30905818  0.96821051     0.36300
C395        C  0.03912782  0.23491234  0.43726968     0.36900
C396        C  0.09840099  0.29322796  0.34651074     0.40200
N397        N  0.09486997  0.21435666  0.07011904    -0.37900
N398        N  0.09900807  0.21131796  0.46603477    -0.39500
N399        N  0.04870536  0.32989627  0.06221777    -0.37200
N400        N  0.04556350  0.32207573  0.44902582    -0.39600
N401        N  0.11623703  0.30632791  0.44146033    -0.39400
N402        N  0.10885023  0.30699567  0.32906949    -0.37000
N403        N  0.03121669  0.21091951  0.34645693    -0.38100
N404        N  0.02623376  0.22416875  0.45591588    -0.39700
C405        C  0.30222155  0.06362757  0.21915090    -0.04700
C406        C  0.31947348  0.08066273  0.22735733     0.09500
C407        C  0.33952002  0.07437236  0.24881930    -0.02000
C408        C  0.34371828  0.05055062  0.25836223    -0.00300
C409        C  0.32728756  0.03296775  0.24763407    -0.03900
C410        C  0.30571305  0.03996098  0.23058591     0.03100
C411        C  0.31835650  0.10454513  0.20967595     0.09900
C412        C  0.35626165  0.09245427  0.25978153     0.35800
C413        C  0.28640558  0.02344401  0.22713023     0.39300
C414        C  0.30533756  0.12302746  0.22650211    -0.04300
C415        C  0.30674692  0.14614568  0.21164096     0.02900
C416        C  0.32197030  0.15101789  0.18062856    -0.03900
C417        C  0.33397911  0.13197177  0.16267669    -0.00100
C418        C  0.33199641  0.10886843  0.17711048    -0.02700
C419        C  0.29080896  0.11827419  0.25944676     0.36600
C420        C  0.34891588  0.13587395  0.12988840     0.40200
C421        C  0.29179904  0.16461369  0.22754720     0.39300
C422        C  0.34450784  0.08941175  0.15901684     0.36300
C423        C  0.28118305  0.07038908  0.19817784     0.36900
C424        C  0.36549466  0.04426702  0.27778864     0.40200
N425        N  0.27976331  0.17929604  0.24005474    -0.37900
N426        N  0.27920090  0.11452126  0.28571549    -0.39500
N427        N  0.36070785  0.13875601  0.10354258    -0.37200
N428        N  0.35444563  0.07382782  0.14480563    -0.39600
N429        N  0.36948693  0.10696984  0.26851393    -0.39400
N430        N  0.38287561  0.03939266  0.29334024    -0.37000
N431        N  0.27032912  0.01099169  0.22495309    -0.38100
N432        N  0.26442247  0.07576627  0.18135926    -0.39700
C433        C  0.34589439  0.06669143  0.45395185    -0.04700
C434        C  0.32812927  0.08205168  0.43964166     0.09500
C435        C  0.30685005  0.07224472  0.42638029    -0.02000
C436        C  0.30378118  0.04745189  0.42551774    -0.00300
C437        C  0.32200522  0.03180703  0.43793087    -0.03900
C438        C  0.34292985  0.04172539  0.45297869     0.03100
C439        C  0.33240173  0.10831391  0.43470877     0.09900
C440        C  0.28856620  0.08774878  0.41124933     0.35800
C441        C  0.36239383  0.02646634  0.46427070     0.39300
C442        C  0.34561026  0.11650457  0.40352926    -0.04300
C443        C  0.34766258  0.14105103  0.39613469     0.02900
C444        C  0.33572236  0.15806750  0.41911150    -0.03900
C445        C  0.32288699  0.14968776  0.45095764    -0.00100
C446        C  0.32154529  0.12505304  0.45885326    -0.02700
C447        C  0.35686114  0.09948756  0.37849234     0.36600
C448        C  0.31026205  0.16618731  0.47509428     0.40200
C449        C  0.36278496  0.14854265  0.36520807     0.39300
C450        C  0.30881192  0.11676106  0.49184901     0.36300
C451        C  0.36775772  0.07662516  0.46794662     0.36900
C452        C  0.28218470  0.03808875  0.40947729     0.40200
N453        N  0.37488176  0.15444003  0.34056336    -0.37900
N454        N  0.36582581  0.08587935  0.35861589    -0.39500
N455        N  0.30010944  0.17926950  0.49442905    -0.37200
N456        N  0.29876590  0.11002704  0.51823164    -0.39600
N457        N  0.27405460  0.10015092  0.39907902    -0.39400
N458        N  0.26501992  0.03070532  0.39636196    -0.37000
N459        N  0.37830197  0.01472184  0.47321000    -0.38100
N460        N  0.38524524  0.08456470  0.47896281    -0.39700
C461        C  0.34039080  0.00510466  0.12555394    -0.04700
C462        C  0.32258203  0.99136650  0.10855796     0.09500
C463        C  0.30719418  0.97817833  0.13171396    -0.02000
C464        C  0.30962208  0.97860998  0.17142596    -0.00300
C465        C  0.32812582  0.99149282  0.18854756    -0.03900
C466        C  0.34345805  0.00478078  0.16522312     0.03100
C467        C  0.32430301  0.98890200  0.56941542     0.09900
C468        C  0.28894930  0.96386073  0.11449318     0.35800
C469        C  0.36329398  0.01705603  0.18172527     0.39300
C470        C  0.34205626  0.97610148  0.54993792    -0.04300
C471        C  0.34183711  0.97493784  0.51001413     0.02900
C472        C  0.32311734  0.98549934  0.48930757    -0.03900
C473        C  0.30430751  0.99637985  0.50932521    -0.00100
C474        C  0.30548827  0.99918269  0.54884919    -0.02700
C475        C  0.36049006  0.96399387  0.57122079     0.36600
C476        C  0.28272906  0.00287565  0.48978557     0.40200
C477        C  0.36122471  0.96330262  0.49069834     0.39300
C478        C  0.28732671  0.01272628  0.56837272     0.36300
C479        C  0.35574473  0.01938542  0.10202885     0.36900
C480        C  0.29240271  0.96631492  0.19430781     0.40200
N481        N  0.37712165  0.95392600  0.47637891    -0.37900
N482        N  0.37505748  0.95437380  0.58851342    -0.39500
N483        N  0.26494547  0.00742125  0.47522202    -0.37200
N484        N  0.27287239  0.02354451  0.58397111    -0.39600
N485        N  0.27441367  0.95249851  0.10062495    -0.39400
N486        N  0.27788362  0.95663574  0.21129925    -0.37000
N487        N  0.37938080  0.02675838  0.19439702    -0.38100
N488        N  0.36795639  0.03074674  0.08314044    -0.39700
C489        C  0.50064269  0.22145192  0.47120422    -0.04700
C490        C  0.48108174  0.23667191  0.47601366     0.09500
C491        C  0.48408271  0.25929686  0.49181133    -0.02000
C492        C  0.50694563  0.26753201  0.49962100    -0.00300
C493        C  0.52682247  0.25303624  0.49162161    -0.03900
C494        C  0.52344854  0.22939561  0.48016740     0.03100
C495        C  0.45749668  0.22988908  0.46154945     0.09900
C496        C  0.46359520  0.27423625  0.49916255     0.35800
C497        C  0.54296628  0.21264876  0.48080609     0.39300
C498        C  0.44049493  0.22012622  0.48603307    -0.04300
C499        C  0.41706710  0.21728605  0.47347910     0.02900
C500        C  0.41087860  0.22367623  0.43605164    -0.03900
C501        C  0.42840860  0.23209840  0.41094038    -0.00100
C502        C  0.45163348  0.23534102  0.42381864    -0.02700
C503        C  0.44712126  0.21339623  0.52421239     0.36600
C504        C  0.42232315  0.23894924  0.37252823     0.40200
C505        C  0.39937160  0.20796539  0.49913644     0.39300
C506        C  0.46936216  0.24525948  0.39874146     0.36300
C507        C  0.49724652  0.19773836  0.45674318     0.36900
C508        C  0.50988761  0.29101151  0.51532173     0.40200
N509        N  0.38528262  0.20061034  0.51971027    -0.37900
N510        N  0.45249469  0.20786524  0.55455703    -0.39500
N511        N  0.41747821  0.24440935  0.34192101    -0.37200
N512        N  0.48352369  0.25321422  0.37889154    -0.39600
N513        N  0.44718195  0.28600630  0.50516905    -0.39400
N514        N  0.51215232  0.30973780  0.52789635    -0.37000
N515        N  0.55807052  0.19875320  0.48238981    -0.38100
N516        N  0.49453704  0.17883471  0.44512957    -0.39700
C517        C  0.43397586  0.24474255  0.14213812    -0.04700
C518        C  0.44576531  0.23478745  0.17365606     0.09500
C519        C  0.43279020  0.22129037  0.20002734    -0.02000
C520        C  0.40839345  0.21709213  0.19426252    -0.00300
C521        C  0.39667435  0.22662876  0.16226241    -0.03900
C522        C  0.40959674  0.24066837  0.13640530     0.03100
C523        C  0.47232784  0.23585849  0.17590612     0.09900
C524        C  0.44478019  0.21127500  0.23263271     0.35800
C525        C  0.39785739  0.25102326  0.10379474     0.39300
C526        C  0.48393855  0.25548989  0.19184413    -0.04300
C527        C  0.50886140  0.25768188  0.18882175     0.02900
C528        C  0.52248203  0.23974982  0.17106221    -0.03900
C529        C  0.51068285  0.21961686  0.15651608    -0.00100
C530        C  0.48587411  0.21775065  0.15897255    -0.02700
C531        C  0.47010286  0.27370233  0.21055106     0.36600
C532        C  0.52396493  0.20085117  0.13797256     0.40200
C533        C  0.51999983  0.27937300  0.20088387     0.39300
C534        C  0.47406306  0.19739411  0.14294789     0.36300
C535        C  0.44717878  0.25875334  0.11505558     0.36900
C536        C  0.39568710  0.20173959  0.22001611     0.40200
N537        N  0.52854202  0.29694841  0.21022159    -0.37900
N538        N  0.45908363  0.28817759  0.22571709    -0.39500
N539        N  0.53447688  0.18588954  0.12309225    -0.37200
N540        N  0.46454073  0.18121388  0.13023346    -0.39600
N541        N  0.45442644  0.20336415  0.25865909    -0.39400
N542        N  0.38557198  0.18929058  0.24029546    -0.37000
N543        N  0.38868366  0.25935834  0.07766600    -0.38100
N544        N  0.45778886  0.26990036  0.09352526    -0.39700
C545        C  0.54917770  0.27007801  0.36797308    -0.04700
C546        C  0.56344819  0.25310033  0.34953108     0.09500
C547        C  0.57811037  0.23800429  0.37124574    -0.02000
C548        C  0.57908697  0.24035117  0.41098540    -0.00300
C549        C  0.56561464  0.25810170  0.42950870    -0.03900
C550        C  0.55053778  0.27284604  0.40758468     0.03100
C551        C  0.56385125  0.25179333  0.30707828     0.09900
C552        C  0.59241581  0.22014742  0.35243757     0.35800
C553        C  0.53786882  0.29228412  0.42511010     0.39300
C554        C  0.57525738  0.26950903  0.28578262    -0.04300
C555        C  0.57530083  0.26861208  0.24587149     0.02900
C556        C  0.56584769  0.24883613  0.22674375    -0.03900
C557        C  0.55537244  0.23056905  0.24849401    -0.00100
C558        C  0.55338526  0.23263840  0.28815790    -0.02700
C559        C  0.58726974  0.28857334  0.30510156     0.35000
C560        C  0.54807290  0.20875764  0.23083242     0.40200
C561        C  0.58400433  0.28876948  0.22490752     0.39300
C562        C  0.54062556  0.21495315  0.30968855     0.36300
C563        C  0.53331564  0.28498138  0.34593416     0.36900
C564        C  0.59402807  0.22432802  0.43241006     0.40200
N565        N  0.59078207  0.30539592  0.20926206    -0.37900
N566        N  0.59698291  0.30366193  0.32057167    -0.39500
N567        N  0.54241179  0.19089111  0.21793683    -0.37200
N568        N  0.53037808  0.20093951  0.32693907    -0.39600
N569        N  0.60359921  0.20583272  0.33718842    -0.39400
N570        N  0.60610438  0.21108648  0.44848514    -0.37000
N571        N  0.52788449  0.30825448  0.43809868    -0.38100
N572        N  0.52066772  0.29681699  0.32827242    -0.39700
C573        C  0.70535136  0.26747739  0.18021135    -0.04700
C574        C  0.68792561  0.25344817  0.16277735     0.09500
C575        C  0.69480576  0.23731650  0.13435553    -0.02000
C576        C  0.71873169  0.23528907  0.12319539    -0.00300
C577        C  0.73630213  0.24959956  0.14002974    -0.03900
C578        C  0.72943451  0.26550675  0.16908223     0.03100
C579        C  0.66199833  0.25621529  0.17214773     0.09900
C580        C  0.67707409  0.22267384  0.11648015     0.35800
C581        C  0.74700864  0.28016309  0.18722133     0.39300
C582        C  0.64843117  0.27360513  0.15329450    -0.04300
C583        C  0.62348273  0.27249338  0.15353716     0.02900
C584        C  0.61162162  0.25398667  0.17296019    -0.03900
C585        C  0.62525358  0.23794360  0.19490842    -0.00100
C586        C  0.65032957  0.23924033  0.19473988    -0.02700
C587        C  0.66025439  0.29195965  0.13182939     0.36600
C588        C  0.61387216  0.21880515  0.21500770     0.40200
C589        C  0.61002279  0.28988296  0.13200135     0.39300
C590        C  0.66430280  0.22240523  0.21640819     0.36300
C591        C  0.69842132  0.28394458  0.20960763     0.36900
C592        C  0.72530823  0.21750758  0.09550546     0.40200
N593        N  0.59928040  0.30372986  0.11484567    -0.37900
N594        N  0.66972128  0.30664089  0.11485279    -0.39500
N595        N  0.60520260  0.20332050  0.23123031    -0.37200
N596        N  0.67552193  0.20906957  0.23381159    -0.39600
N597        N  0.66288499  0.21097666  0.10242434    -0.39400
N598        N  0.73054955  0.20325886  0.07354707    -0.37000
N599        N  0.76096868  0.29185382  0.20188908    -0.38100
N600        N  0.69285958  0.29709309  0.23306482    -0.39700
C601        C  0.98741754  0.25412956  0.08343639    -0.04700
C602        C  0.97301669  0.27199875  0.09931011     0.09500
C603        C  0.98366343  0.29248281  0.11389810    -0.02000
C604        C  0.00853610  0.29447001  0.11479835    -0.00300
C605        C  0.02328850  0.27570036  0.10178647    -0.03900
C606        C  0.01243197  0.25572012  0.08518949     0.03100
C607        C  0.94675206  0.26874166  0.10373281     0.09900
C608        C  0.96889999  0.31110449  0.12975697     0.35800
C609        C  0.02650862  0.23564430  0.07309863     0.39300
C610        C  0.93764318  0.25935868  0.13774299    -0.04300
C611        C  0.91305343  0.26013348  0.14515540     0.02900
C612        C  0.89719076  0.26972365  0.11804733    -0.03900
C613        C  0.90629434  0.27743401  0.08273169    -0.00100
C614        C  0.93095626  0.27699236  0.07575149    -0.02700
C615        C  0.95375780  0.24895143  0.16514117     0.36600
C616        C  0.89051515  0.28711344  0.05419263     0.40200
C617        C  0.90414448  0.25090504  0.18068086     0.39300
C618        C  0.94023122  0.28540982  0.03997734     0.36300
C619        C  0.97636138  0.23357325  0.06682388     0.36900
C620        C  0.01887867  0.31553701  0.13108659     0.40200
N621        N  0.89714669  0.24352262  0.20908063    -0.37900
N622        N  0.96674311  0.24051826  0.18667373    -0.39500
N623        N  0.87802427  0.29487596  0.03131915    -0.37200
N624        N  0.94770925  0.29199076  0.01139426    -0.39600
N625        N  0.95706437  0.32584686  0.14254079    -0.39400
N626        N  0.02701514  0.33234656  0.14420744    -0.37000
N627        N  0.03686506  0.21901399  0.06335500    -0.38100
N628        N  0.96746275  0.21724231  0.05345532    -0.39700
C629        C  0.68686962  0.24908207  0.39787713    -0.04700
C630        C  0.68252970  0.26568942  0.42663314     0.09500
C631        C  0.70120959  0.27891828  0.44180285    -0.02000
C632        C  0.72435765  0.27558385  0.42812331    -0.00300
C633        C  0.72910664  0.25792531  0.40060734    -0.03900
C634        C  0.71014748  0.24458624  0.38572780     0.03100
C635        C  0.65842916  0.26788463  0.44292118     0.09900
C636        C  0.69654035  0.29584461  0.47173183     0.35800
C637        C  0.71446896  0.22549266  0.35917957     0.39300
C638        C  0.65246135  0.25409725  0.47466716    -0.04300
C639        C  0.62938945  0.25505368  0.48924411     0.02900
C640        C  0.61223923  0.27010618  0.47233834    -0.03900
C641        C  0.61855060  0.28459834  0.44142688    -0.00100
C642        C  0.64153880  0.28311586  0.42625654    -0.02700
C643        C  0.67003219  0.23856735  0.49185221     0.36600
C644        C  0.60185524  0.30168904  0.42613142     0.40200
C645        C  0.62308771  0.23957079  0.52046435     0.39300
C646        C  0.64785505  0.29706948  0.39334526     0.36300
C647        C  0.66726154  0.23656304  0.38094043     0.36900
C648        C  0.74298178  0.29094104  0.44167276     0.40200
N649        N  0.61813399  0.22700569  0.54506416    -0.37900
N650        N  0.68406959  0.22623137  0.50552909    -0.39500
N651        N  0.58886030  0.31561426  0.41378148    -0.37200
N652        N  0.65290854  0.30807718  0.36695656    -0.39600
N653        N  0.69281257  0.30922956  0.49574257    -0.39400
N654        N  0.75777953  0.30326550  0.45237727    -0.37000
N655        N  0.71784619  0.21017973  0.33815627    -0.38100
N656        N  0.65155932  0.22683594  0.36716311    -0.39700
C657        C  0.93910878  0.27698002  0.29745471    -0.04700
C658        C  0.95670602  0.26887415  0.32263589     0.09500
C659        C  0.95067419  0.26124832  0.35928274    -0.02000
C660        C  0.92693340  0.26159536  0.37081846    -0.00300
C661        C  0.90926002  0.27019152  0.34597634    -0.03900
C662        C  0.91534696  0.27776381  0.30916046     0.03100
C663        C  0.98160294  0.26699631  0.31002116     0.09900
C664        C  0.96893355  0.25267708  0.38482853     0.35800
C665        C  0.89730289  0.28669784  0.28355569     0.39300
C666        C  0.99785280  0.28477222  0.31951719    -0.04300
C667        C  0.02181316  0.28209244  0.30967586     0.02900
C668        C  0.02960111  0.26114103  0.29182410    -0.03900
C669        C  0.01300643  0.24383458  0.28084440    -0.00100
C670        C  0.98906054  0.24676108  0.29012298    -0.02700
C671        C  0.98989846  0.30555855  0.34001810     0.36600
C672        C  0.02062285  0.22238723  0.26166043     0.40200
C673        C  0.03803338  0.30138077  0.31620125     0.39300
C674        C  0.97216377  0.22854863  0.28043609     0.36300
C675        C  0.94553818  0.28442142  0.25955321     0.36900
C676        C  0.92059676  0.25189319  0.40748299     0.40200
N677        N  0.05057404  0.31715603  0.32109414    -0.37900
N678        N  0.98351711  0.32203044  0.35661480    -0.39500
N679        N  0.02675009  0.20529717  0.24646135    -0.37200
N680        N  0.95870637  0.21402377  0.27271330    -0.39600
N681        N  0.98354083  0.24593600  0.40516049    -0.39400
N682        N  0.91555291  0.24395821  0.43656209    -0.37000
N683        N  0.88296112  0.29382665  0.26305300    -0.38100
N684        N  0.95071695  0.29035044  0.22934658    -0.39700
C685        C  0.80016203  0.12776145  0.14649887    -0.04700
C686        C  0.78540582  0.12357304  0.17788727     0.09500
C687        C  0.77335782  0.14244578  0.19563056    -0.02000
C688        C  0.77612354  0.16562794  0.18197391    -0.00300
C689        C  0.79129634  0.16985386  0.15108300    -0.03900
C690        C  0.80317719  0.15096304  0.13314920     0.03100
C691        C  0.78293788  0.09923526  0.19293314     0.09900
C692        C  0.75851593  0.13794961  0.22831192     0.35800
C693        C  0.81907614  0.15556218  0.10178223     0.39300
C694        C  0.79897148  0.09079790  0.22032877    -0.04300
C695        C  0.79665920  0.06772522  0.23473398     0.02900
C696        C  0.77857909  0.05290305  0.22094434    -0.03900
C697        C  0.76163828  0.06204333  0.19538775    -0.00100
C698        C  0.76419544  0.08498354  0.18062570    -0.02700
C699        C  0.81816773  0.10578275  0.23275978     0.36600
C700        C  0.74059365  0.04875237  0.18645216     0.40200
C701        C  0.81327761  0.05916563  0.26296437     0.39300
C702        C  0.74769043  0.09395275  0.15253370     0.36300
C703        C  0.81255139  0.10824383  0.12850376     0.36900
C704        C  0.76315180  0.18505408  0.19926183     0.40200
N705        N  0.82668793  0.05251061  0.28537292    -0.37900
N706        N  0.83346712  0.11790720  0.24214375    -0.39500
N707        N  0.72323757  0.03896263  0.17957030    -0.37200
N708        N  0.73464434  0.10113128  0.12998056    -0.39600
N709        N  0.74679841  0.13423627  0.25446739    -0.39400
N710        N  0.75267833  0.20050167  0.21291071    -0.37000
N711        N  0.83178104  0.15938635  0.07687786    -0.38100
N712        N  0.82248314  0.09269750  0.11416990    -0.39700
C713        C  0.77641475  0.09440438  0.39578967    -0.04700
C714        C  0.79511220  0.10591963  0.41437532     0.09500
C715        C  0.81152015  0.09229297  0.43551093    -0.02000
C716        C  0.81030894  0.06720292  0.43559478    -0.00300
C717        C  0.79271157  0.05557578  0.41433367    -0.03900
C718        C  0.77530431  0.06948209  0.39546080     0.03100
C719        C  0.79866194  0.13202658  0.40772604     0.09900
C720        C  0.83043829  0.10409667  0.45539382     0.35800
C721        C  0.75668006  0.05811656  0.37404024     0.39300
C722        C  0.79074102  0.14895205  0.43417066    -0.04300
C723        C  0.79094521  0.17338085  0.42496817     0.02900
C724        C  0.79932353  0.18115636  0.38918956    -0.03900
C725        C  0.80851517  0.16416009  0.36366878    -0.00100
C726        C  0.80817735  0.13980345  0.37294780    -0.02700
C727        C  0.78201935  0.14113211  0.47064192     0.36600
C728        C  0.81878225  0.17169555  0.32806924     0.40200
C729        C  0.78138980  0.19033477  0.45176593     0.39300
C730        C  0.81753912  0.12246721  0.34665113     0.36300
C731        C  0.75895639  0.10829814  0.37516014     0.36900
C732        C  0.82830499  0.05349461  0.45510524     0.40200
N733        N  0.77371378  0.20380476  0.47318422    -0.37900
N734        N  0.77525354  0.13486231  0.49985605    -0.39500
N735        N  0.82706293  0.17766452  0.29970762    -0.37200
N736        N  0.82498602  0.10830430  0.32622454    -0.39600
N737        N  0.84552434  0.11356984  0.47126277    -0.39400
N738        N  0.84280227  0.04277823  0.47084212    -0.37000
N739        N  0.74178910  0.04908329  0.35706387    -0.38100
N740        N  0.74513139  0.11942137  0.35860693    -0.39700
C741        C  0.80639098  0.02113675  0.11106483    -0.04700
C742        C  0.78908292  0.01073946  0.08776516     0.09500
C743        C  0.76914818  0.00008330  0.10452699    -0.02000
C744        C  0.76638631  0.00009934  0.14412806    -0.00300
C745        C  0.78391131  0.01003503  0.16758714    -0.03900
C746        C  0.80391923  0.02060919  0.15076622     0.03100
C747        C  0.78890447  0.00968714  0.54750477     0.09900
C748        C  0.75134594  0.98914391  0.08091995     0.35800
C749        C  0.82247479  0.03026845  0.17413516     0.39300
C750        C  0.80611377  0.99559491  0.52932241    -0.04300
C751        C  0.80871838  0.99667255  0.48968392     0.02900
C752        C  0.79220637  0.00952921  0.46731196    -0.03900
C753        C  0.77388822  0.02226619  0.48585467    -0.00100
C754        C  0.77330822  0.02362367  0.52563312    -0.02700
C755        C  0.82125234  0.98005772  0.55156740     0.36600
C756        C  0.75447849  0.03257198  0.46470256     0.40200
C757        C  0.82942088  0.98582449  0.47281743     0.39300
C758        C  0.75688244  0.03968550  0.54421697     0.36300
C759        C  0.82682246  0.03236943  0.09410467     0.36900
C760        C  0.74480994  0.99092857  0.16038155     0.40200
N761        N  0.84645384  0.97722011  0.46078303    -0.37900
N762        N  0.83665491  0.96986353  0.06706031    -0.39500
N763        N  0.73824464  0.04056110  0.44923108    -0.37200
N764        N  0.74492838  0.05244606  0.05681650    -0.39600
N765        N  0.73706266  0.98057640  0.06209149    -0.39400
N766        N  0.72712246  0.98394708  0.17231812    -0.37000
N767        N  0.83776601  0.03782373  0.19203356    -0.38100
N768        N  0.84318846  0.04115138  0.08050213    -0.39700
C769        C  0.83600708  0.42606529  0.31056801    -0.04700
C770        C  0.82114980  0.41299261  0.33484544     0.09500
C771        C  0.80409618  0.42516855  0.35652955    -0.02000
C772        C  0.80340166  0.45018864  0.35678761    -0.00300
C773        C  0.82001090  0.46359855  0.33555528    -0.03900
C774        C  0.83574742  0.45121783  0.31125964     0.03100
C775        C  0.82565695  0.38696222  0.34205584     0.09900
C776        C  0.78790040  0.41180683  0.38002317     0.35800
C777        C  0.85315853  0.46386370  0.28929255     0.39300
C778        C  0.84050738  0.38009395  0.37226502    -0.04300
C779        C  0.84425394  0.35589512  0.38090625     0.02900
C780        C  0.83260249  0.33791968  0.36005376    -0.03900
C781        C  0.81794342  0.34495112  0.32926282    -0.00100
C782        C  0.81462030  0.36929268  0.32033453    -0.02700
C783        C  0.85188170  0.39816130  0.39483680     0.36600
C784        C  0.80563809  0.32733004  0.30717198     0.40200
C785        C  0.86089737  0.34974419  0.41066259     0.39300
C786        C  0.79957665  0.37625328  0.28899215     0.36300
C787        C  0.85229803  0.41348290  0.28599474     0.36900
C788        C  0.78611106  0.46210448  0.38056435     0.40200
N789        N  0.87423031  0.34497452  0.43436044    -0.37900
N790        N  0.86082617  0.41261852  0.41284672    -0.39500
N791        N  0.79579255  0.31337142  0.28935943    -0.37200
N792        N  0.78760821  0.38180834  0.26391255    -0.39600
N793        N  0.77501056  0.40106887  0.39868584    -0.39400
N794        N  0.77243534  0.47155106  0.39977414    -0.37000
N795        N  0.86744242  0.47324375  0.27139771    -0.38100
N796        N  0.86514409  0.40337799  0.26619556    -0.39700
C797        C  0.81052815  0.37527272  0.06064477    -0.04700
C798        C  0.82470764  0.39300732  0.07645883     0.09500
C799        C  0.83987603  0.38776016  0.10698058    -0.02000
C800        C  0.84166892  0.36443439  0.12072211    -0.00300
C801        C  0.82749450  0.34648400  0.10481027    -0.03900
C802        C  0.81125742  0.35226711  0.07561021     0.03100
C803        C  0.82432388  0.41707662  0.05970830     0.09900
C804        C  0.85387985  0.40635654  0.12381347     0.35800
C805        C  0.79453730  0.33491394  0.06183658     0.39300
C806        C  0.80552217  0.43276162  0.06777723    -0.04300
C807        C  0.80479082  0.45520826  0.05059963     0.02900
C808        C  0.82377932  0.46264404  0.02763589    -0.03900
C809        C  0.84217707  0.44650052  0.01850249    -0.00100
C810        C  0.84225791  0.42366480  0.03425046    -0.02700
C811        C  0.78704058  0.42578980  0.09392457     0.36600
C812        C  0.86161450  0.45357116  0.99423585     0.40200
C813        C  0.78384206  0.46991553  0.05474122     0.39300
C814        C  0.86085175  0.40689104  0.02450259     0.36300
C815        C  0.79556063  0.38065007  0.02835281     0.36900
C816        C  0.85861366  0.35895684  0.15037226     0.40200
N817        N  0.76672294  0.48110843  0.05777438    -0.37900
N818        N  0.77237068  0.42023982  0.11490882    -0.39500
N819        N  0.87715313  0.45915204  0.97494248    -0.37200
N820        N  0.87559671  0.39343339  0.01675677    -0.39600
N821        N  0.86507503  0.42114540  0.13729788    -0.39400
N822        N  0.87211482  0.35463232  0.17403875    -0.37000
N823        N  0.78109289  0.32114364  0.05108516    -0.38100
N824        N  0.78378171  0.38495696  0.00245202    -0.39700
C825        C  0.80357313  0.52003735  0.13662528    -0.04700
C826        C  0.81981238  0.50708818  0.15894277     0.09500
C827        C  0.83771467  0.49361157  0.14111959    -0.02000
C828        C  0.84021780  0.49415062  0.10148978    -0.00300
C829        C  0.82381461  0.50685678  0.07887134    -0.03900
C830        C  0.80516533  0.51941164  0.09678649     0.03100
C831        C  0.81934640  0.50888078  0.20126371     0.09900
C832        C  0.85395738  0.47952978  0.16381827     0.35800
C833        C  0.78695124  0.53093273  0.07447553     0.39300
C834        C  0.80147952  0.49782863  0.22273942    -0.04300
C835        C  0.80198386  0.49885497  0.26265663     0.02900
C836        C  0.82117036  0.50959204  0.28149466    -0.03900
C837        C  0.83915089  0.52036491  0.25972335    -0.00100
C838        C  0.83767818  0.52088312  0.21999100    -0.02700
C839        C  0.78281118  0.48504949  0.20374491     0.36600
C840        C  0.86049705  0.52881557  0.27753705     0.40200
C841        C  0.78239651  0.48941867  0.28417940     0.39300
C842        C  0.85543144  0.53335918  0.19811848     0.36300
C843        C  0.78539816  0.53426826  0.15477833     0.36900
C844        C  0.86062867  0.48275723  0.08452572     0.40200
N845        N  0.76646343  0.48207005  0.30093572    -0.37900
N846        N  0.76793402  0.47485199  0.18853644    -0.39500
N847        N  0.87813282  0.53519277  0.29038078    -0.37200
N848        N  0.86952517  0.54324145  0.18050740    -0.39600
N849        N  0.86695145  0.46840770  0.18198948    -0.39400
N850        N  0.87738176  0.47384733  0.07203592    -0.37000
N851        N  0.77188965  0.53996271  0.05747816    -0.38100
N852        N  0.77093008  0.54558016  0.16942798    -0.39700
C853        C  0.84771362  0.58142860  0.06637014    -0.04700
C854        C  0.83000737  0.59733434  0.05415087     0.09500
C855        C  0.81307339  0.59021651  0.02741260    -0.02000
C856        C  0.81362924  0.56704762  0.01319097    -0.00300
C857        C  0.83060566  0.55062162  0.02688312    -0.03900
C858        C  0.84823409  0.55815782  0.05233908     0.03100
C859        C  0.82871324  0.62166099  0.06969655     0.09900
C860        C  0.79453981  0.60657359  0.01565797     0.35800
C861        C  0.86774609  0.54261439  0.06239618     0.39300
C862        C  0.83876426  0.64063521  0.04953981    -0.04300
C863        C  0.83511125  0.66398231  0.06202883     0.02900
C864        C  0.82072041  0.66833348  0.09394446    -0.03900
C865        C  0.81143169  0.64922343  0.11488390    -0.00100
C866        C  0.81584331  0.62588352  0.10312071    -0.02700
C867        C  0.85288084  0.63603662  0.01607174     0.36600
C868        C  0.79671095  0.65355386  0.14781428     0.40200
C869        C  0.84690690  0.68340732  0.04303271     0.39300
C870        C  0.80721978  0.60615181  0.12535592     0.36300
C871        C  0.86516843  0.58900221  0.09372740     0.36900
C872        C  0.79620870  0.56002168  0.98534548     0.40200
N873        N  0.85650302  0.69889477  0.02821294    -0.37900
N874        N  0.86417013  0.63232649  0.98941417    -0.39500
N875        N  0.78490621  0.65700028  0.17399539    -0.37200
N876        N  0.80065676  0.59039251  0.14335690    -0.39600
N877        N  0.77969056  0.61962640  0.00665812    -0.39400
N878        N  0.78226997  0.55451445  0.96317699    -0.37000
N879        N  0.88379394  0.53079263  0.07036865    -0.38100
N880        N  0.87900514  0.59503629  0.11569855    -0.39700
C881        C  0.76357886  0.92647932  0.20586838    -0.04700
C882        C  0.78351657  0.91896681  0.18508719     0.09500
C883        C  0.80296379  0.93411451  0.18046477    -0.02000
C884        C  0.80255616  0.95676882  0.19682266    -0.00300
C885        C  0.78217901  0.96477571  0.21624994    -0.03900
C886        C  0.76295035  0.94926663  0.22168044     0.03100
C887        C  0.78449384  0.89450979  0.16978583     0.09900
C888        C  0.82339319  0.92627571  0.15886505     0.35800
C889        C  0.74229931  0.95679882  0.24301735     0.39300
C890        C  0.77224947  0.88895132  0.13641644    -0.04300
C891        C  0.77144686  0.86537106  0.12380665     0.02900
C892        C  0.78482311  0.84750794  0.14264157    -0.03900
C893        C  0.79813599  0.85362015  0.17520254    -0.00100
C894        C  0.79722332  0.87683608  0.18936282    -0.02700
C895        C  0.76081645  0.90767611  0.11478279     0.36600
C896        C  0.81347346  0.83643686  0.19377150     0.40200
C897        C  0.75592783  0.85958884  0.09254836     0.39300
C898        C  0.80944929  0.88265073  0.22417773     0.36300
C899        C  0.74365544  0.91073042  0.21075801     0.36900
C900        C  0.82381895  0.97089087  0.19603903     0.40200
N901        N  0.74336278  0.85503656  0.06784287    -0.37900
N902        N  0.75203006  0.92270932  0.09734536    -0.39500
N903        N  0.82578791  0.82282899  0.20858126    -0.37200
N904        N  0.81913330  0.88733453  0.25194378    -0.39600
N905        N  0.83962051  0.91996953  0.14154835    -0.39400
N906        N  0.84129328  0.98140139  0.19563451    -0.37000
N907        N  0.72581034  0.96284932  0.25993330    -0.38100
N908        N  0.72773477  0.89819018  0.21445497    -0.39700
C909        C  0.80604961  0.59123097  0.31837910    -0.04700
C910        C  0.82460625  0.60477009  0.33375259     0.09500
C911        C  0.84483707  0.59293439  0.34776904    -0.02000
C912        C  0.84571256  0.56792248  0.34934479    -0.00300
C913        C  0.82650708  0.55413843  0.33603860    -0.03900
C914        C  0.80684702  0.56609324  0.31978972     0.03100
C915        C  0.82180040  0.63117822  0.33965667     0.09900
C916        C  0.86452194  0.60662754  0.36192446     0.35800
C917        C  0.78639707  0.55288556  0.30764329     0.39300
C918        C  0.80946433  0.63964646  0.37171853    -0.04300
C919        C  0.80840665  0.66417957  0.37976670     0.02900
C920        C  0.81959310  0.68074105  0.35570683    -0.03900
C921        C  0.83184048  0.67223934  0.32337660    -0.00100
C922        C  0.83278991  0.64764457  0.31532737    -0.02700
C923        C  0.79824366  0.62286470  0.39694820     0.36600
C924        C  0.84487238  0.68861121  0.29970542     0.40200
C925        C  0.79581875  0.67234891  0.41304647     0.39300
C926        C  0.84553021  0.63916302  0.28240731     0.36300
C927        C  0.78572346  0.60332190  0.30220408     0.36900
C928        C  0.86623632  0.55644062  0.36617059     0.40200
N929        N  0.78583396  0.67886157  0.43967009    -0.37900
N930        N  0.78932516  0.60923918  0.41671043    -0.39500
N931        N  0.85545617  0.70162544  0.28101214    -0.37200
N932        N  0.85570397  0.63236771  0.25614492    -0.39600
N933        N  0.88026556  0.61757794  0.37298742    -0.39400
N934        N  0.88260583  0.54730612  0.37958886    -0.37000
N935        N  0.76970607  0.54284071  0.29803319    -0.38100
N936        N  0.76956176  0.61303213  0.28918013    -0.39700
C937        C  0.78022920  0.88205464  0.36482790    -0.04700
C938        C  0.79076459  0.88899979  0.39910386     0.09500
C939        C  0.79974642  0.87149162  0.42376815    -0.02000
C940        C  0.79846657  0.84716172  0.41419333    -0.00300
C941        C  0.78745610  0.83984572  0.37998480    -0.03900
C942        C  0.77828239  0.85781046  0.35542950     0.03100
C943        C  0.79416937  0.91494362  0.40722095     0.09900
C944        C  0.81060959  0.87869228  0.45898648     0.35800
C945        C  0.76633433  0.85179282  0.32047239     0.39300
C946        C  0.77641206  0.92850474  0.42536730    -0.04300
C947        C  0.77802985  0.95355128  0.42690308     0.02900
C948        C  0.79761402  0.96523188  0.41051371    -0.03900
C949        C  0.81625721  0.95122646  0.39506605    -0.00100
C950        C  0.81452646  0.92634841  0.39360622    -0.02700
C951        C  0.75610639  0.91664157  0.44144342     0.36600
C952        C  0.83716102  0.96242186  0.37948447     0.40200
C953        C  0.75868318  0.96710408  0.44300237     0.39300
C954        C  0.83342869  0.91238472  0.37681042     0.36300
C955        C  0.77157556  0.90009394  0.33881173     0.36900
C956        C  0.80944017  0.82993556  0.43923054     0.40200
N957        N  0.74298733  0.97748403  0.45609833    -0.37900
N958        N  0.73995216  0.90715933  0.45446112    -0.39500
N959        N  0.85383012  0.97130897  0.36705146    -0.37200
N960        N  0.84847588  0.90115705  0.36354454    -0.39600
N961        N  0.81919300  0.88456758  0.48708503    -0.39400
N962        N  0.81836211  0.81635439  0.45932435    -0.37000
N963        N  0.75683680  0.84722779  0.29247745    -0.38100
N964        N  0.76478062  0.91448069  0.31804710    -0.39700
C965        C  0.64010157  0.73639197  0.46248800    -0.04700
C966        C  0.64286958  0.75954702  0.44839091     0.09500
C967        C  0.62346746  0.77526450  0.44723144    -0.02000
C968        C  0.60099542  0.76745806  0.45851365    -0.00300
C969        C  0.59768556  0.74357248  0.46884478    -0.03900
C970        C  0.61755220  0.72844591  0.47311051     0.03100
C971        C  0.66592149  0.76660750  0.43205472     0.09900
C972        C  0.62659814  0.79927499  0.43364344     0.35800
C973        C  0.61488770  0.70466830  0.48800400     0.39300
C974        C  0.67085106  0.76100258  0.39407953    -0.04300
C975        C  0.69343012  0.76521599  0.37915122     0.02900
C976        C  0.71125636  0.77468520  0.40247053    -0.03900
C977        C  0.70598101  0.78134179  0.44002510    -0.00100
C978        C  0.68320848  0.77739832  0.45476437    -0.02700
C979        C  0.65291924  0.74989444  0.37091580     0.36600
C980        C  0.72393981  0.79223965  0.46337389     0.40200
C981        C  0.69866471  0.75842300  0.34045671     0.39300
C982        C  0.67765435  0.78391160  0.49340882     0.36300
C983        C  0.66040062  0.72056263  0.46481187     0.36900
C984        C  0.58187231  0.78446888  0.46251022     0.40200
N985        N  0.70286342  0.75304087  0.30962015    -0.37900
N986        N  0.63863557  0.74091147  0.35260753    -0.39500
N987        N  0.73823273  0.80099833  0.48196624    -0.37200
N988        N  0.67318277  0.78922146  0.52417714    -0.39600
N989        N  0.62910728  0.81839240  0.42262868    -0.39400
N990        N  0.56711587  0.79851344  0.46672207    -0.37000
N991        N  0.61285591  0.68572445  0.50002975    -0.38100
N992        N  0.67663207  0.70799809  0.46653661    -0.39700
C993        C  0.63187508  0.74723667  0.15917203    -0.04700
C994        C  0.64257217  0.76725624  0.14262687     0.09500
C995        C  0.62820732  0.78611748  0.12980973    -0.02000
C996        C  0.60334057  0.78448621  0.13163039    -0.00300
C997        C  0.59241808  0.76404149  0.14699643    -0.03900
C998        C  0.60691349  0.74549466  0.16101282     0.03100
C999        C  0.66889721  0.76805980  0.13651551     0.09900
C1000       C  0.63911312  0.80702107  0.11373586     0.35800
C1001       C  0.59636457  0.72370418  0.17418978     0.39300
C1002       C  0.67897658  0.75794171  0.10370256    -0.04300
C1003       C  0.70352165  0.75989513  0.09657824     0.02900
C1004       C  0.71830884  0.77178856  0.12248804    -0.03900
C1005       C  0.70809967  0.78205387  0.15520758    -0.00100
C1006       C  0.68352869  0.78023646  0.16208230    -0.02700
C1007       C  0.66387446  0.74600837  0.07678575     0.36600
C1008       C  0.72263534  0.79577172  0.18070702     0.40200
C1009       C  0.71349781  0.74964636  0.06250848     0.39300
C1010       C  0.67306849  0.79157965  0.19486165     0.36300
C1011       C  0.64664919  0.72810786  0.17333885     0.36900
C1012       C  0.58899288  0.80369739  0.11638814     0.40200
N1013       N  0.72135069  0.74153153  0.03520029    -0.37900
N1014       N  0.65171858  0.73657340  0.05538302    -0.39500
N1015       N  0.73422186  0.80685204  0.20086057    -0.37200
N1016       N  0.66460432  0.80075440  0.22081486    -0.39600
N1017       N  0.64786715  0.82370549  0.10107602    -0.39400
N1018       N  0.57758258  0.81899691  0.10416627    -0.37000
N1019       N  0.58829934  0.70606061  0.18444060    -0.38100
N1020       N  0.65844899  0.71286154  0.18473705    -0.39700
C1021       C  0.54407460  0.73285506  0.26764923    -0.04700
C1022       C  0.55574694  0.75054286  0.28839402     0.09500
C1023       C  0.56549760  0.76999261  0.26896584    -0.02000
C1024       C  0.56257826  0.77228745  0.22939967    -0.00300
C1025       C  0.55182426  0.75402953  0.20820811    -0.03900
C1026       C  0.54321372  0.73395681  0.22780785     0.03100
C1027       C  0.55760828  0.74839409  0.33071505     0.09900
C1028       C  0.57857943  0.78766965  0.28976785     0.35800
C1029       C  0.53473832  0.71358234  0.20738213     0.39300
C1030       C  0.57205130  0.73062002  0.34696717    -0.04300
C1031       C  0.57127999  0.72622906  0.38626678     0.02900
C1032       C  0.55694626  0.74033685  0.41023485    -0.03900
C1033       C  0.54341395  0.75897239  0.39402493    -0.00100
C1034       C  0.54352486  0.76275774  0.35446724    -0.02700
C1035       C  0.58734482  0.71644121  0.32290317     0.36600
C1036       C  0.52936525  0.77449356  0.41764681     0.40200
C1037       C  0.58377082  0.70584395  0.40135180     0.39300
C1038       C  0.52871641  0.78116241  0.33798481     0.36300
C1039       C  0.53269645  0.71351799  0.28752512     0.36900
C1040       C  0.56921953  0.79426270  0.21136222     0.40200
N1041       N  0.59351767  0.68912782  0.41239462    -0.37900
N1042       N  0.59952533  0.70520341  0.30359104    -0.39500
N1043       N  0.51804048  0.78748608  0.43541609    -0.37200
N1044       N  0.51701839  0.79588473  0.32470744    -0.39600
N1045       N  0.58912952  0.80171242  0.30631451    -0.39400
N1046       N  0.57427945  0.81228626  0.19818275    -0.37000
N1047       N  0.52831436  0.69664210  0.19241075    -0.38100
N1048       N  0.52353031  0.69823769  0.30354285    -0.39700
C1049       C  0.41112003  0.73625071  0.17390897    -0.04700
C1050       C  0.42785080  0.75176309  0.15785237     0.09500
C1051       C  0.42022119  0.76906062  0.13157384    -0.02000
C1052       C  0.39621880  0.77066376  0.12101942    -0.00300
C1053       C  0.37950002  0.75451367  0.13582304    -0.03900
C1054       C  0.38710585  0.73738540  0.16260541     0.03100
C1055       C  0.45391208  0.74857539  0.16492225     0.09900
C1056       C  0.43725171  0.78509926  0.11483061     0.35800
C1057       C  0.37051106  0.72026990  0.17745991     0.39300
C1058       C  0.46624092  0.73040187  0.14590562    -0.04300
C1059       C  0.49112568  0.73078259  0.14368170     0.02900
C1060       C  0.50409389  0.74942187  0.16047321    -0.03900
C1061       C  0.49179768  0.76646208  0.18232413    -0.00100
C1062       C  0.46680536  0.76579578  0.18497442    -0.02700
C1063       C  0.45317432  0.71224800  0.12606642     0.36600
C1064       C  0.50432727  0.78620565  0.19862875     0.40200
C1065       C  0.50324062  0.71272322  0.12167784     0.39300
C1066       C  0.45415558  0.78380029  0.20620789     0.36300
C1067       C  0.41873236  0.71901013  0.20188646     0.36900
C1068       C  0.38874076  0.78954740  0.09565658     0.40200
N1069       N  0.51279593  0.69826789  0.10414701    -0.37900
N1070       N  0.44267574  0.69780510  0.11033538    -0.39500
N1071       N  0.51386078  0.80228053  0.21164223    -0.37200
N1072       N  0.44406665  0.79820427  0.22308039    -0.39600
N1073       N  0.45085280  0.79790976  0.10164726    -0.39400
N1074       N  0.38281503  0.80462754  0.07548556    -0.37000
N1075       N  0.35739713  0.70646409  0.18925810    -0.38100
N1076       N  0.42482553  0.70528083  0.22425747    -0.39700
C1077       C  0.32015444  0.90716039  0.23071569    -0.04700
C1078       C  0.33609301  0.89992907  0.20226908     0.09500
C1079       C  0.35406293  0.91533461  0.18996565    -0.02000
C1080       C  0.35555564  0.93828582  0.20520360    -0.00300
C1081       C  0.33924744  0.94565358  0.23308058    -0.03900
C1082       C  0.32222111  0.92966953  0.24697362     0.03100
C1083       C  0.33345477  0.87607450  0.18511972     0.09900
C1084       C  0.37089641  0.90751841  0.16158328     0.35800
C1085       C  0.30609363  0.93681313  0.27689503     0.39300
C1086       C  0.32301691  0.87383678  0.14914096    -0.04300
C1087       C  0.31790850  0.85128143  0.13475762     0.02900
C1088       C  0.32339817  0.83083877  0.15622423    -0.03900
C1089       C  0.33447896  0.83308010  0.19184487    -0.00100
C1090       C  0.33958523  0.85568376  0.20615760    -0.02700
C1091       C  0.31739478  0.89478213  0.12700672     0.36600
C1092       C  0.34120356  0.81219405  0.21340791     0.40200
C1093       C  0.30619592  0.84918604  0.09842191     0.39300
C1094       C  0.35121852  0.85806739  0.24250645     0.36300
C1095       C  0.30104532  0.89169952  0.24213463     0.36900
C1096       C  0.37440075  0.95386851  0.19328949     0.40200
N1097       N  0.29682198  0.84749237  0.06949421    -0.37900
N1098       N  0.31318873  0.91143813  0.10906994    -0.39500
N1099       N  0.34665137  0.79562469  0.23073646    -0.37200
N1100       N  0.36050485  0.86004567  0.27145693    -0.39600
N1101       N  0.38424973  0.90122517  0.13885983    -0.39400
N1102       N  0.38967825  0.96601992  0.18375680    -0.37000
N1103       N  0.29321401  0.94280482  0.30050199    -0.38100
N1104       N  0.28577301  0.87930744  0.25084762    -0.39700
C1105       C  0.42292196  0.71485724  0.42201016    -0.04700
C1106       C  0.44047181  0.73172222  0.41401892     0.09500
C1107       C  0.43472255  0.75230365  0.39318324    -0.02000
C1108       C  0.41120989  0.75665653  0.38202764    -0.00300
C1109       C  0.39342715  0.74012019  0.39097500    -0.03900
C1110       C  0.39951782  0.71882632  0.40989795     0.03100
C1111       C  0.46477991  0.72877367  0.42954493     0.09900
C1112       C  0.45306563  0.76916260  0.38377362     0.35800
C1113       C  0.38194479  0.70053635  0.41551898     0.39300
C1114       C  0.48104835  0.71295823  0.41266724    -0.04300
C1115       C  0.50452259  0.71167516  0.42597376     0.02900
C1116       C  0.51178560  0.72650502  0.45575260    -0.03900
C1117       C  0.49517550  0.74168553  0.47346987    -0.00100
C1118       C  0.47175494  0.74276631  0.46042825    -0.02700
C1119       C  0.47360330  0.69813105  0.38154184     0.36600
C1120       C  0.50242862  0.75728036  0.50380443     0.40200
C1121       C  0.52084134  0.69458193  0.40980485     0.39300
C1122       C  0.45486715  0.75869947  0.47827690     0.36300
C1123       C  0.42890866  0.69355851  0.44304105     0.36900
C1124       C  0.40530327  0.77845257  0.36224854     0.40200
N1125       N  0.53353653  0.68067157  0.39675467    -0.37900
N1126       N  0.46756766  0.68621129  0.35687863    -0.39500
N1127       N  0.50817399  0.77006681  0.52750260    -0.37200
N1128       N  0.44142505  0.77148974  0.49230848    -0.39600
N1129       N  0.46776396  0.78255098  0.37643945    -0.39400
N1130       N  0.40062067  0.79580924  0.34639155    -0.37000
N1131       N  0.36794195  0.68591828  0.41962117    -0.38100
N1132       N  0.43366235  0.67652590  0.45971644    -0.39700
C1133       C  0.31506929  0.85904060  0.37540274    -0.04700
C1134       C  0.32597068  0.86549950  0.40976561     0.09500
C1135       C  0.33625879  0.84763976  0.43250761    -0.02000
C1136       C  0.33543860  0.82357982  0.42123672    -0.00300
C1137       C  0.32476500  0.81706389  0.38644387    -0.03900
C1138       C  0.31488286  0.83513605  0.36338586     0.03100
C1139       C  0.32766294  0.89135237  0.42047374     0.09900
C1140       C  0.34820717  0.85415705  0.46715555     0.35800
C1141       C  0.30431814  0.82923098  0.32731561     0.39300
C1142       C  0.31085566  0.90202318  0.44484317    -0.04300
C1143       C  0.30990517  0.92704758  0.44902474     0.02900
C1144       C  0.32659537  0.94152855  0.43037946    -0.03900
C1145       C  0.34494018  0.93039359  0.40934693    -0.00100
C1146       C  0.34505996  0.90566813  0.40356394    -0.02700
C1147       C  0.29387940  0.88722545  0.46423222     0.36600
C1148       C  0.36330814  0.94465942  0.39211160     0.40200
C1149       C  0.29068567  0.93777384  0.47009614     0.39300
C1150       C  0.36234588  0.89508792  0.37829462     0.36300
C1151       C  0.30380234  0.87720801  0.35257406     0.36900
C1152       C  0.34669173  0.80568754  0.44477973     0.40200
N1153       N  0.27509546  0.94596552  0.48689958    -0.37900
N1154       N  0.28050331  0.87526880  0.47985254    -0.39500
N1155       N  0.37795592  0.95613579  0.37865384    -0.37200
N1156       N  0.37596373  0.88673170  0.35775705    -0.39600
N1157       N  0.35781336  0.85940640  0.49472528    -0.39400
N1158       N  0.35570503  0.79145062  0.46357820    -0.37000
N1159       N  0.29604584  0.82459611  0.29837908    -0.38100
N1160       N  0.29467579  0.89192430  0.33495532    -0.39700
C1161       C  0.13338753  0.70750261  0.09644710    -0.04700
C1162       C  0.14359902  0.72989122  0.09084172     0.09500
C1163       C  0.12893875  0.74920355  0.08068183    -0.02000
C1164       C  0.10409712  0.74638039  0.07762030    -0.00300
C1165       C  0.09355919  0.72422604  0.08549463    -0.03900
C1166       C  0.10858553  0.70476476  0.09474358     0.03100
C1167       C  0.16974156  0.73310404  0.09720212     0.09900
C1168       C  0.13943570  0.77227215  0.07500880     0.35800
C1169       C  0.09858858  0.68203263  0.10478264     0.39300
C1170       C  0.18596988  0.72862207  0.06784781    -0.04300
C1171       C  0.21060778  0.73001993  0.07446575     0.02900
C1172       C  0.21946879  0.73413466  0.11149349    -0.03900
C1173       C  0.20297426  0.74039990  0.14019077    -0.00100
C1174       C  0.17832994  0.73987388  0.13299373    -0.02700
C1175       C  0.17721872  0.72177703  0.03094348     0.36600
C1176       C  0.21123392  0.74836900  0.17680676     0.40200
C1177       C  0.22644248  0.72776144  0.04250725     0.39300
C1178       C  0.16166023  0.74582761  0.16269941     0.36300
C1179       C  0.14849438  0.68734395  0.10522687     0.36900
C1180       C  0.08950180  0.76694211  0.06963290     0.40200
N1181       N  0.23855232  0.72674887  0.01620044    -0.37900
N1182       N  0.17021360  0.71607787  0.00165023    -0.39500
N1183       N  0.21773947  0.75494672  0.20592835    -0.37200
N1184       N  0.14826751  0.75058642  0.18626743    -0.39600
N1185       N  0.14786880  0.79067802  0.07073049    -0.39400
N1186       N  0.07852574  0.78386387  0.06339175    -0.37000
N1187       N  0.09079921  0.66388307  0.11318899    -0.38100
N1188       N  0.16060915  0.67128360  0.11200652    -0.39700
C1189       C  0.96521882  0.72407493  0.05654522    -0.04700
C1190       C  0.95451881  0.74114321  0.08029844     0.09500
C1191       C  0.96889678  0.75562089  0.10288136    -0.02000
C1192       C  0.99359013  0.75203762  0.10368112    -0.00300
C1193       C  0.00422841  0.73351627  0.08253712    -0.03900
C1194       C  0.98996764  0.71996444  0.05809617     0.03100
C1195       C  0.92831819  0.74082230  0.08742271     0.09900
C1196       C  0.95802835  0.77309920  0.12749049     0.35800
C1197       C  0.00023971  0.70052103  0.03697360     0.39300
C1198       C  0.91948668  0.72549408  0.11546165    -0.04300
C1199       C  0.89526461  0.72578141  0.12491214     0.02900
C1200       C  0.87939917  0.74187540  0.10690304    -0.03900
C1201       C  0.88829564  0.75701483  0.07821799    -0.00100
C1202       C  0.91267073  0.75647735  0.06862355    -0.02700
C1203       C  0.93560066  0.70946268  0.13498403     0.36600
C1204       C  0.87259662  0.77355345  0.05908816     0.40200
C1205       C  0.88674403  0.70867410  0.15234209     0.39300
C1206       C  0.92177154  0.77215276  0.03965683     0.36300
C1207       C  0.95047594  0.70980686  0.03222156     0.36900
C1208       C  0.00804765  0.76712893  0.12726683     0.40200
N1209       N  0.88007078  0.69498927  0.17421130    -0.37900
N1210       N  0.94859136  0.69679459  0.15040676    -0.39500
N1211       N  0.86008675  0.78673196  0.04372301    -0.37200
N1212       N  0.92905124  0.78465327  0.01651517    -0.39600
N1213       N  0.94930199  0.78688418  0.14732054    -0.39400
N1214       N  0.01956960  0.77938239  0.14568562    -0.37000
N1215       N  0.00806187  0.68480358  0.02006367    -0.38100
N1216       N  0.93866334  0.69849082  0.01275890    -0.39700
C1217       C  0.13537721  0.74928708  0.28376296    -0.04700
C1218       C  0.14073256  0.72903779  0.30554596     0.09500
C1219       C  0.12352194  0.71160258  0.31180401    -0.02000
C1220       C  0.10070999  0.71462494  0.29669436    -0.00300
C1221       C  0.09509430  0.73530615  0.27598306    -0.03900
C1222       C  0.11275709  0.75212120  0.26811063     0.03100
C1223       C  0.16500437  0.72591354  0.32049382     0.09900
C1224       C  0.12937718  0.69058688  0.33362134     0.35800
C1225       C  0.10767587  0.77243514  0.24414830     0.39300
C1226       C  0.17035698  0.73350847  0.35731325    -0.04300
C1227       C  0.19398833  0.73368870  0.36959860     0.02900
C1228       C  0.21228621  0.72586876  0.34517748    -0.03900
C1229       C  0.20669826  0.71797181  0.30835546    -0.00100
C1230       C  0.18303481  0.71771028  0.29628943    -0.02700
C1231       C  0.15153889  0.74166064  0.38211823     0.36600
C1232       C  0.22511839  0.71036364  0.28248315     0.40200
C1233       C  0.19958694  0.74356816  0.40631304     0.39300
C1234       C  0.17712816  0.70920185  0.25878813     0.36300
C1235       C  0.15312649  0.76736450  0.27799999     0.36900
C1236       C  0.08367083  0.69571363  0.30018448     0.40200
N1237       N  0.20425043  0.75166046  0.43534848    -0.37900
N1238       N  0.13647838  0.74803639  0.40187715    -0.39500
N1239       N  0.23951463  0.70450640  0.26115824    -0.37200
N1240       N  0.17235332  0.70231100  0.22900527    -0.39600
N1241       N  0.13401450  0.67384705  0.35111274    -0.39400
N1242       N  0.07050244  0.68021574  0.30260395    -0.37000
N1243       N  0.10362318  0.78859502  0.22497822    -0.38100
N1244       N  0.16729088  0.78178092  0.27359272    -0.39700
C1245       C  0.97714434  0.76440570  0.31259158    -0.04700
C1246       C  0.96090505  0.74788523  0.29842907     0.09500
C1247       C  0.96806852  0.73110711  0.27127202    -0.02000
C1248       C  0.99174309  0.73028963  0.25939775    -0.00300
C1249       C  0.00794940  0.74722427  0.27298975    -0.03900
C1250       C  0.00021149  0.76501721  0.29807041     0.03100
C1251       C  0.93608576  0.74833090  0.31183348     0.09900
C1252       C  0.95117052  0.71434380  0.25628111     0.35800
C1253       C  0.01517097  0.78491833  0.30697441     0.39300
C1254       C  0.92085086  0.76699279  0.30080565    -0.04300
C1255       C  0.89748983  0.76772702  0.31430181     0.02900
C1256       C  0.88900767  0.74906565  0.33712483    -0.03900
C1257       C  0.90401027  0.72976503  0.34641501    -0.00100
C1258       C  0.92779635  0.72996719  0.33521639    -0.02700
C1259       C  0.92933337  0.78551520  0.27582996     0.36600
C1260       C  0.89478377  0.70919447  0.36605256     0.40200
C1261       C  0.88256595  0.78807029  0.30575155     0.39300
C1262       C  0.94389273  0.71153495  0.34827724     0.36300
C1263       C  0.97026449  0.78034691  0.34282522     0.36900
C1264       C  0.99955390  0.71122789  0.23481976     0.40200
N1265       N  0.87073008  0.80435333  0.29904900    -0.37900
N1266       N  0.93618235  0.80027445  0.25599334    -0.39500
N1267       N  0.88734099  0.69269315  0.38127586    -0.37200
N1268       N  0.95681212  0.69696548  0.35882441    -0.39600
N1269       N  0.93768538  0.70091900  0.24459588    -0.39400
N1270       N  0.00570985  0.69576916  0.21572319    -0.37000
N1271       N  0.02636385  0.80140010  0.31384324    -0.38100
N1272       N  0.96484896  0.79283252  0.36726477    -0.39700
C1273       C  0.03921570  0.72669627  0.38779626    -0.04700
C1274       C  0.05345720  0.74323403  0.40697146     0.09500
C1275       C  0.06641203  0.75989411  0.38580770    -0.02000
C1276       C  0.06475931  0.76030999  0.34601161    -0.00300
C1277       C  0.05157186  0.74296484  0.32659457    -0.03900
C1278       C  0.03877890  0.72613581  0.34788789     0.03100
C1279       C  0.04774603  0.73419377  0.94918234     0.09900
C1280       C  0.08161616  0.77658122  0.40497045     0.35800
C1281       C  0.02572582  0.70764184  0.32914271     0.39300
C1282       C  0.05861636  0.71454521  0.96666990    -0.04300
C1283       C  0.05836432  0.71232697  0.00635691     0.02900
C1284       C  0.04926059  0.73082122  0.02922048    -0.03900
C1285       C  0.03871395  0.75074971  0.01137436    -0.00100
C1286       C  0.03711404  0.75189898  0.97159566    -0.02700
C1287       C  0.07011146  0.69659733  0.94366410     0.36600
C1288       C  0.03006064  0.77053796  0.03337968     0.40200
C1289       C  0.06543436  0.68997257  0.02300339     0.39300
C1290       C  0.02436898  0.77123774  0.95349101     0.36300
C1291       C  0.02505695  0.71008281  0.40929616     0.36900
C1292       C  0.07535869  0.77969719  0.32544645     0.40200
N1293       N  0.07050804  0.67150572  0.03476367    -0.37900
N1294       N  0.07934981  0.68241397  0.92517114    -0.39500
N1295       N  0.02323807  0.78691282  0.04977578    -0.37200
N1296       N  0.01404124  0.78648263  0.93889188    -0.39600
N1297       N  0.09372646  0.78993576  0.42018177    -0.39400
N1298       N  0.08338899  0.79586729  0.31012049    -0.37000
N1299       N  0.01529179  0.69245392  0.31520747    -0.38100
N1300       N  0.01388746  0.69680698  0.42656662    -0.39700
C1301       C  0.29032013  0.40672722  0.38570407    -0.04700
C1302       C  0.30835523  0.39298906  0.36882358     0.09500
C1303       C  0.32581983  0.40445400  0.34691809    -0.02000
C1304       C  0.32562245  0.42952134  0.34293050    -0.00300
C1305       C  0.30781427  0.44335641  0.36058075    -0.03900
C1306       C  0.29005592  0.43160328  0.38169543     0.03100
C1307       C  0.30925406  0.36661314  0.37618527     0.09900
C1308       C  0.34466666  0.39047428  0.33015750     0.35800
C1309       C  0.27179245  0.44529462  0.40067601     0.39300
C1310       C  0.29710202  0.35084617  0.35237785    -0.04300
C1311       C  0.29503621  0.32661984  0.36226097     0.02900
C1312       C  0.30526793  0.31775894  0.39613118    -0.03900
C1313       C  0.31783061  0.33356488  0.41962658    -0.00100
C1314       C  0.32011776  0.35771359  0.40931682    -0.02700
C1315       C  0.28648080  0.35972512  0.31779942     0.36600
C1316       C  0.32847605  0.32502668  0.45442628     0.40200
C1317       C  0.28107424  0.31114151  0.33860227     0.39300
C1318       C  0.33393342  0.37358454  0.43242438     0.36300
C1319       C  0.27257489  0.39525248  0.40889648     0.36900
C1320       C  0.34477924  0.44109980  0.32317843     0.40200
N1321       N  0.26980066  0.29882029  0.31989515    -0.37900
N1322       N  0.27815026  0.36687581  0.29011930    -0.39500
N1323       N  0.33682920  0.31821446  0.48231160    -0.37200
N1324       N  0.34519325  0.38652372  0.45002491    -0.39600
N1325       N  0.35973726  0.37923334  0.31697989    -0.39400
N1326       N  0.36027635  0.45014169  0.30755785    -0.37000
N1327       N  0.25706161  0.45632257  0.41517963    -0.38100
N1328       N  0.25855507  0.38605704  0.42758350    -0.39700
C1329       C  0.30160747  0.61922677  0.38728133    -0.04700
C1330       C  0.29958107  0.60977346  0.35055490     0.09500
C1331       C  0.29509628  0.62527100  0.32002997    -0.02000
C1332       C  0.29171341  0.64989430  0.32624480    -0.00300
C1333       C  0.29282079  0.65950538  0.36346479    -0.03900
C1334       C  0.29893730  0.64379532  0.39361520     0.03100
C1335       C  0.30313793  0.58350588  0.34457227     0.09900
C1336       C  0.29416819  0.61578634  0.28199155     0.35800
C1337       C  0.30380333  0.65270593  0.43125190     0.39300
C1338       C  0.28366521  0.56848942  0.33816670    -0.04300
C1339       C  0.28650399  0.54352677  0.33984151     0.02900
C1340       C  0.30870021  0.53335487  0.34927423    -0.03900
C1341       C  0.32829481  0.54854628  0.35439288    -0.00100
C1342       C  0.32570874  0.57328746  0.35025268    -0.02700
C1343       C  0.26038975  0.57878533  0.33217541     0.36600
C1344       C  0.35086174  0.53899361  0.36697486     0.40200
C1345       C  0.26598608  0.52859059  0.33558126     0.39300
C1346       C  0.34617267  0.58846108  0.35373860     0.36300
C1347       C  0.30653249  0.60347840  0.41891826     0.36900
C1348       C  0.28752862  0.66501085  0.29372684     0.40200
N1349       N  0.24929650  0.51706686  0.33228420    -0.37900
N1350       N  0.24183221  0.58705813  0.32742658    -0.39500
N1351       N  0.36880080  0.53148804  0.37749692    -0.37200
N1352       N  0.36247033  0.60059797  0.35641823    -0.39600
N1353       N  0.29339398  0.60816349  0.25169589    -0.39400
N1354       N  0.28461184  0.67673803  0.26724229    -0.37000
N1355       N  0.30792092  0.65966941  0.46124793    -0.38100
N1356       N  0.31055073  0.59089397  0.44401937    -0.39700
C1357       C  0.24878835  0.57386293  0.05773009    -0.04700
C1358       C  0.27229141  0.58211876  0.05690711     0.09500
C1359       C  0.29077226  0.56661137  0.04618847    -0.02000
C1360       C  0.28601922  0.54255885  0.03936000    -0.00300
C1361       C  0.26285317  0.53387146  0.04368946    -0.03900
C1362       C  0.24400589  0.54996755  0.04962263     0.03100
C1363       C  0.27754184  0.60707321  0.06785899     0.09900
C1364       C  0.31462750  0.57547752  0.04201000     0.35800
C1365       C  0.21973507  0.54226762  0.04578068     0.39300
C1366       C  0.28717763  0.61184707  0.10374273    -0.04300
C1367       C  0.29079095  0.63539912  0.11527243     0.02900
C1368       C  0.28396480  0.65452355  0.09152327    -0.03900
C1369       C  0.27542642  0.64955340  0.05472545    -0.00100
C1370       C  0.27235878  0.62592308  0.04295092    -0.02700
C1371       C  0.29298340  0.59242110  0.12911863     0.36600
C1372       C  0.26920609  0.66849530  0.02889253     0.40200
C1373       C  0.30235375  0.63983642  0.15115092     0.39300
C1374       C  0.26350794  0.62094390  0.00531058     0.36300
C1375       C  0.22960882  0.58987173  0.06769908     0.36900
C1376       C  0.30447893  0.52725901  0.02451346     0.40200
N1377       N  0.31173495  0.64341287  0.17960887    -0.37900
N1378       N  0.29758309  0.57686667  0.14923404    -0.39500
N1379       N  0.26434720  0.68313148  0.00730044    -0.37200
N1380       N  0.25639554  0.61702206  0.97532653    -0.39600
N1381       N  0.33365988  0.58255750  0.03858406    -0.39400
N1382       N  0.31909051  0.51537304  0.01148391    -0.37000
N1383       N  0.20032139  0.53632923  0.04218902    -0.38100
N1384       N  0.21437172  0.60269017  0.07577487    -0.39700
C1385       C  0.26282733  0.41492544  0.11162213    -0.04700
C1386       C  0.28219353  0.40263968  0.09571868     0.09500
C1387       C  0.29460983  0.41251018  0.06508639    -0.02000
C1388       C  0.28715355  0.43421006  0.04936505    -0.00300
C1389       C  0.26795113  0.44679003  0.06550556    -0.03900
C1390       C  0.25565776  0.43695685  0.09649042     0.03100
C1391       C  0.28813037  0.37819015  0.10864201     0.09900
C1392       C  0.31514978  0.40022629  0.04998271     0.35800
C1393       C  0.23471109  0.44860169  0.11127634     0.39300
C1394       C  0.27883389  0.35872766  0.08886666    -0.04300
C1395       C  0.28454925  0.33551910  0.10026901     0.02900
C1396       C  0.29918681  0.33169828  0.13205761    -0.03900
C1397       C  0.30843664  0.35117661  0.15195811    -0.00100
C1398       C  0.30318529  0.37442193  0.13988016    -0.02700
C1399       C  0.26308099  0.36267122  0.05705319     0.36600
C1400       C  0.32356633  0.34727699  0.18454134     0.40200
C1401       C  0.27464079  0.31557563  0.08009649     0.39300
C1402       C  0.31336379  0.39445970  0.15931252     0.36300
C1403       C  0.25003143  0.40456766  0.14305479     0.36900
C1404       C  0.29940183  0.44356020  0.01664184     0.40200
N1405       N  0.26676326  0.29967950  0.06400110    -0.37900
N1406       N  0.25047271  0.36589019  0.03176835    -0.39500
N1407       N  0.33559215  0.34414300  0.21057328    -0.37200
N1408       N  0.32158545  0.41042016  0.17476901    -0.39600
N1409       N  0.33162982  0.39033261  0.03849198    -0.39400
N1410       N  0.30953136  0.45097234  0.99084092    -0.37000
N1411       N  0.21770948  0.45734547  0.12318346    -0.38100
N1412       N  0.23990237  0.39623578  0.16815489    -0.39700
C1413       C  0.30331291  0.48508009  0.15288865    -0.04700
C1414       C  0.28795870  0.49402379  0.18104088     0.09500
C1415       C  0.26631951  0.50466351  0.17003418    -0.02000
C1416       C  0.25898603  0.50386838  0.13196621    -0.00300
C1417       C  0.27433283  0.49495818  0.10377539    -0.03900
C1418       C  0.29707868  0.48684560  0.11438242     0.03100
C1419       C  0.29388973  0.49115320  0.22225383     0.09900
C1420       C  0.25118930  0.51576978  0.19813078     0.35800
C1421       C  0.31437930  0.48049496  0.08600053     0.39300
C1422       C  0.31395838  0.50212490  0.23785753    -0.04300
C1423       C  0.31985494  0.49835835  0.27612443     0.02900
C1424       C  0.30391391  0.48688550  0.30079494    -0.03900
C1425       C  0.28354461  0.47628732  0.28526471    -0.00100
C1426       C  0.27944158  0.47714609  0.24589295    -0.02700
C1427       C  0.32833723  0.51770294  0.21482754     0.36600
C1428       C  0.26578578  0.46580940  0.30929421     0.40200
C1429       C  0.34310467  0.50489969  0.28927579     0.39300
C1430       C  0.26019575  0.46368540  0.22965065     0.36300
C1431       C  0.32518377  0.47320620  0.16349885     0.36900
C1432       C  0.23476076  0.50998134  0.12285610     0.40200
N1433       N  0.36215885  0.50952593  0.29837591    -0.37900
N1434       N  0.33975937  0.53017799  0.19647760    -0.39500
N1435       N  0.25057067  0.45766976  0.32676692    -0.37200
N1436       N  0.24492012  0.45294993  0.21655075    -0.39600
N1437       N  0.23909255  0.52460148  0.22050185    -0.39400
N1438       N  0.21502849  0.51423481  0.11720178    -0.37000
N1439       N  0.32912559  0.47562342  0.06464636    -0.38100
N1440       N  0.34265369  0.46378234  0.17194021    -0.39700
N1441       N  0.27641757  0.48808392  0.56602359    -0.02700
C1442       C  0.27267697  0.46786120  0.54636964    -0.00100
C1443       C  0.26514817  0.47275188  0.51008450    -0.23000
C1444       C  0.26429589  0.49689681  0.50672614    -0.23200
C1445       C  0.27120451  0.50579940  0.54126780    -0.00200
H1446       H  0.26088439  0.46000214  0.48852446     0.13600
H1447       H  0.25950631  0.50690988  0.48171387     0.13600
N1448       N  0.31743988  0.49077100  0.84463668    -0.02700
C1449       C  0.32192560  0.51051128  0.86590033    -0.00100
C1450       C  0.32830303  0.50411746  0.90220152    -0.23000
C1451       C  0.32799957  0.47998830  0.90382485    -0.23200
C1452       C  0.32092939  0.47197713  0.86875926    -0.00200
H1453       H  0.33234103  0.51587573  0.92537183     0.13600
H1454       H  0.33177712  0.46929130  0.92852164     0.13600
N1455       N  0.05259367  0.74647405  0.78704385    -0.02700
C1456       C  0.07227781  0.74509091  0.76492940    -0.00100
C1457       C  0.06690360  0.75179676  0.72830496    -0.23000
C1458       C  0.04321126  0.75731555  0.72760209    -0.23200
C1459       C  0.03479143  0.75381089  0.76381788    -0.00200
H1460       H  0.07903043  0.75284647  0.70474452     0.13600
H1461       H  0.03314811  0.76320478  0.70331051     0.13600
N1462       N  0.05248352  0.73734644  0.57056721    -0.02700
C1463       C  0.07064918  0.73260507  0.59504913    -0.00100
C1464       C  0.06220888  0.73003638  0.63136240    -0.23000
C1465       C  0.03831118  0.73339544  0.62974751    -0.23200
C1466       C  0.03256007  0.73794459  0.59253047    -0.00200
H1467       H  0.07248383  0.72614166  0.65638705     0.13600
H1468       H  0.02627200  0.73301468  0.65334023     0.13600
O1469       O  0.31124168  0.76398392  0.78192962    -0.80100
O1470       O  0.31469834  0.74924209  0.95376589    -0.64800
O1471       O  0.31896648  0.73800627  0.84860760    -1.11400
C1472       C  0.23894256  0.72156737  0.85346032     1.06800
O1473       O  0.28528597  0.72452316  0.96717573    -0.78000
O1474       O  0.28918204  0.69448192  0.90721815    -0.65600
Ni1475     Ni  0.33692895  0.75853975  0.81695738     1.34900
C1476       C  0.29283926  0.68759158  0.87356481     0.85500
O1477       O  0.35073988  0.74510035  0.90663329    -0.78500
O1478       O  0.36421236  0.75302233  0.84815629    -0.88800
C1479       C  0.30154576  0.73856530  0.97702867     0.85100
O1480       O  0.33047351  0.78835526  0.84154146    -0.67000
O1481       O  0.24569721  0.71024787  0.88258393    -0.86300
C1482       C  0.32204489  0.79367487  0.87383278     0.85900
C1483       C  0.36747460  0.74762781  0.88284850     1.07500
H1484       H  0.27605511  0.75729499  0.89772007     0.39300
O1485       O  0.28360819  0.74211180  0.89368183    -1.09000
O1486       O  0.28855263  0.70140626  0.84551707    -0.65600
Ni1487     Ni  0.28589832  0.73601939  0.84084842     1.26300
O1488       O  0.31539697  0.77805002  0.89737017    -0.65800
O1489       O  0.25259531  0.73475405  0.83460971    -0.78100
C1490       C  0.29898867  0.74747650  0.76751675     0.85300
O1491       O  0.28940738  0.73184728  0.78805692    -0.65300
Ni1492     Ni  0.26739676  0.71845122  0.92233450     1.27400
Ni1493     Ni  0.31721380  0.74405974  0.90109559     1.26100
H1494       H  0.32596111  0.72247183  0.84558239     0.39900
O1495       O  0.27951618  0.73371079  0.71309407    -0.80100
O1496       O  0.29346325  0.72924224  0.53974036    -0.64800
O1497       O  0.30433400  0.72531805  0.64534555    -1.11400
C1498       C  0.32093479  0.80592356  0.63644245     1.06800
O1499       O  0.32406297  0.75255224  0.52769594    -0.78000
O1500       O  0.35159138  0.75752193  0.58955936    -0.65600
Ni1501     Ni  0.28267957  0.70844223  0.67710640     1.34900
C1502       C  0.35683909  0.75512355  0.62421496     0.85500
O1503       O  0.29522503  0.69331656  0.58732426    -0.78500
O1504       O  0.28417718  0.68128144  0.64506273    -0.88800
C1505       C  0.30780319  0.73872714  0.51694163     0.85100
O1506       O  0.25378172  0.71833733  0.65387075    -0.67000
O1507       O  0.32971272  0.80029180  0.60449479    -0.86300
C1508       C  0.24847911  0.72666982  0.62158828     0.85900
C1509       C  0.28924229  0.67725699  0.61059683     1.07500
H1510       H  0.28703093  0.76811203  0.59379388     0.39300
O1511       O  0.30186565  0.76004749  0.59860252    -1.09000
O1512       O  0.34122600  0.75663070  0.65011682    -0.65600
Ni1513     Ni  0.30689785  0.75867630  0.65190464     1.26300
O1514       O  0.26419532  0.73072940  0.59660823    -0.65800
O1515       O  0.30878590  0.79193647  0.65660593    -0.78100
C1516       C  0.29628746  0.74587371  0.72650221     0.85300
O1517       O  0.31095170  0.75609116  0.70511256    -0.65300
Ni1518     Ni  0.32575494  0.77499456  0.56856422     1.27400
Ni1519     Ni  0.29822541  0.72673654  0.59249849     1.26100
H1520       H  0.31970592  0.71805528  0.64879500     0.39900
N1521       N  0.55174647  0.74962691  0.67052912    -0.02700
C1522       C  0.53179299  0.74730168  0.64903295    -0.00100
C1523       C  0.53734159  0.74912351  0.61111272    -0.23000
C1524       C  0.56116987  0.75253742  0.60870179    -0.23200
C1525       C  0.56974429  0.75296881  0.64522424    -0.00200
H1526       H  0.52521918  0.74799370  0.58761459     0.13600
H1527       H  0.57124590  0.75483533  0.58296392     0.13600
N1528       N  0.55345723  0.73639687  0.95524714    -0.02700
C1529       C  0.53466896  0.73005897  0.97679171    -0.00100
C1530       C  0.54146365  0.72667448  0.01396874    -0.23000
C1531       C  0.56529930  0.73110969  0.01554731    -0.23200
C1532       C  0.57211840  0.73719048  0.97933907    -0.00200
H1533       H  0.53015572  0.72208515  0.03750008     0.13600
H1534       H  0.57638708  0.73038748  0.04043865     0.13600
O1535       O  0.81116034  0.73846400  0.95823720    -0.80100
O1536       O  0.81249162  0.75371803  0.78602562    -0.64800
O1537       O  0.81714153  0.76508901  0.89116564    -1.11400
C1538       C  0.73474757  0.77405299  0.88386020     1.06800
O1539       O  0.78716752  0.78315229  0.77473991    -0.78000
O1540       O  0.77871212  0.81064119  0.83710015    -0.65600
Ni1541     Ni  0.83599259  0.74431497  0.92213537     1.34900
C1542       C  0.78237912  0.81608098  0.87144603     0.85500
O1543       O  0.84896093  0.75807388  0.83200347    -0.78500
O1544       O  0.86286421  0.74892961  0.88977625    -0.88800
C1545       C  0.80103824  0.76678055  0.76340206     0.85100
O1546       O  0.82907031  0.71466840  0.89846241    -0.67000
O1547       O  0.73887408  0.78365082  0.85188112    -0.86300
C1548       C  0.82096320  0.70938174  0.86614434     0.85900
C1549       C  0.86582758  0.75399086  0.85494725     1.07500
H1550       H  0.77538392  0.74510897  0.84149035     0.39300
O1551       O  0.78216738  0.76050903  0.84577887    -1.09000
O1552       O  0.78315398  0.80017347  0.89719061    -0.65600
Ni1553     Ni  0.78380344  0.76558398  0.89889988     1.26300
O1554       O  0.81470305  0.72488804  0.84195797    -0.65800
O1555       O  0.75060354  0.76499515  0.90484189    -0.78100
C1556       C  0.79730099  0.75383577  0.97244191     0.85300
O1557       O  0.78668318  0.76897654  0.95202926    -0.65300
Ni1558     Ni  0.76461265  0.78289623  0.81595899     1.27400
Ni1559     Ni  0.81553374  0.75900349  0.83836644     1.26100
H1560       H  0.82322140  0.78087810  0.89448563     0.39900
O1561       O  0.77816399  0.76572193  0.52758441    -0.80100
O1562       O  0.78869639  0.77067103  0.70010212    -0.64800
O1563       O  0.80207793  0.77511411  0.59525312    -1.11400
C1564       C  0.81965972  0.69414978  0.60634595     1.06800
O1565       O  0.82143233  0.75005320  0.71187241    -0.78000
O1566       O  0.85025222  0.74015495  0.65273960    -0.65600
Ni1567     Ni  0.78058062  0.79164968  0.56240820     1.34900
C1568       C  0.85593514  0.74320292  0.61837717     0.85500
O1569       O  0.78910896  0.80657021  0.65238086    -0.78500
O1570       O  0.78212082  0.81940081  0.59358301    -0.88800
C1571       C  0.80388210  0.76245262  0.72293398     0.85100
O1572       O  0.75107321  0.78231357  0.58489010    -0.67000
O1573       O  0.82610523  0.69921434  0.63990558    -0.86300
C1574       C  0.74582302  0.77312920  0.61662092     0.85900
C1575       C  0.78503778  0.82312956  0.62879704     1.07500
H1576       H  0.78540523  0.73197568  0.64512755     0.39300
O1577       O  0.80005117  0.74038738  0.64153442    -1.09000
O1578       O  0.84048039  0.74411330  0.59211673    -0.65600
Ni1579     Ni  0.80618930  0.74184640  0.58866766     1.26300
O1580       O  0.76123594  0.76817511  0.64157312    -0.65800
O1581       O  0.80950492  0.70863814  0.58399359    -0.78100
C1582       C  0.79571481  0.75438456  0.51414719     0.85300
O1583       O  0.81087482  0.74471352  0.53563163    -0.65300
Ni1584     Ni  0.82286471  0.72566493  0.67377771     1.27400
Ni1585     Ni  0.79458537  0.77344999  0.64758569     1.26100
H1586       H  0.81727152  0.78267474  0.59282645     0.39900
N1587       N  0.85248450  0.51111400  0.53667071    -0.02700
C1588       C  0.85569546  0.53019515  0.51385929    -0.00100
C1589       C  0.86031087  0.52332118  0.47717678    -0.23000
C1590       C  0.85975767  0.49907223  0.47696536    -0.23200
C1591       C  0.85490622  0.49203120  0.51359254    -0.00200
H1592       H  0.86320150  0.53477940  0.45310536     0.13600
H1593       H  0.86207520  0.48777753  0.45258616     0.13600
N1594       N  0.82219284  0.51253669  0.81816261    -0.02700
C1595       C  0.81837823  0.53216673  0.84013236    -0.00100
C1596       C  0.81057182  0.52556929  0.87557324    -0.23000
C1597       C  0.80985683  0.50145104  0.87625673    -0.23200
C1598       C  0.81687969  0.49363991  0.84101457    -0.00200
H1599       H  0.80612910  0.53723180  0.89873740     0.13600
H1600       H  0.80451227  0.49062885  0.89997276     0.13600
N1601       N  0.79850748  0.01245877  0.92451956    -0.02700
C1602       C  0.80155223  0.99329677  0.90123303    -0.00100
C1603       C  0.80591236  0.00080488  0.86470093    -0.23000
C1604       C  0.80573797  0.02496692  0.86506985    -0.23200
C1605       C  0.80088891  0.03186190  0.90159516    -0.00200
H1606       H  0.80915037  0.98976281  0.84030988     0.13600
H1607       H  0.80876520  0.03649692  0.84117473     0.13600
N1608       N  0.78282740  0.00972040  0.71072321    -0.02700
C1609       C  0.78202941  0.98989992  0.73254929    -0.00100
C1610       C  0.78013915  0.99594193  0.77027359    -0.23000
C1611       C  0.77978330  0.02026411  0.77176514    -0.23200
C1612       C  0.78157275  0.02826088  0.73499408    -0.00200
H1613       H  0.77879454  0.98393724  0.79402830     0.13600
H1614       H  0.77803002  0.03101511  0.79678475     0.13600
O1615       O  0.81121508  0.23938437  0.78522712    -0.80100
O1616       O  0.80796469  0.25204678  0.95732498    -0.64800
O1617       O  0.80393934  0.26481112  0.85217543    -1.11400
C1618       C  0.88535761  0.27759739  0.86027473     1.06800
O1619       O  0.83278030  0.28120588  0.97051624    -0.78000
O1620       O  0.83747813  0.30995410  0.90851080    -0.65600
Ni1621     Ni  0.78572867  0.24451452  0.82020941     1.34900
C1622       C  0.83471661  0.31604556  0.87418421     0.85500
O1623       O  0.77208290  0.25559684  0.91016979    -0.78500
O1624       O  0.75842724  0.24897639  0.85161840    -0.88800
C1625       C  0.81834129  0.26521949  0.98078061     0.85100
O1626       O  0.79271975  0.21458067  0.84379702    -0.67000
O1627       O  0.87978617  0.28708344  0.89176274    -0.86300
C1628       C  0.80166422  0.20887395  0.87553560     0.85900
C1629       C  0.75528107  0.25284895  0.88673918     1.07500
H1630       H  0.84642919  0.24535601  0.90223736     0.39300
O1631       O  0.83882713  0.26050896  0.89800633    -1.09000
O1632       O  0.83631424  0.30081016  0.84765014    -0.65600
Ni1633     Ni  0.83728872  0.26625613  0.84479147     1.26300
O1634       O  0.80824131  0.22408743  0.89961825    -0.65800
O1635       O  0.87066864  0.26683872  0.83945349    -0.78100
C1636       C  0.82307004  0.25608306  0.77073453     0.85300
O1637       O  0.83420201  0.27048642  0.79147851    -0.65300
Ni1638     Ni  0.85466173  0.28340270  0.92837545     1.27400
Ni1639     Ni  0.80545948  0.25788545  0.90471851     1.26100
H1640       H  0.79730524  0.28053184  0.84942708     0.39900
O1641       O  0.83917814  0.27220086  0.71493688    -0.80100
O1642       O  0.82915742  0.27020162  0.54283585    -0.64800
O1643       O  0.81440093  0.27798356  0.64653362    -1.11400
C1644       C  0.79901455  0.19641429  0.64244232     1.06800
O1645       O  0.79685010  0.24920767  0.53189526    -0.78000
O1646       O  0.76783227  0.24263883  0.59237542    -0.65600
Ni1647     Ni  0.83412348  0.29684450  0.67803060     1.34900
C1648       C  0.76204910  0.24605783  0.62662454     0.85500
O1649       O  0.82738907  0.30794489  0.58638447    -0.78500
O1650       O  0.83032032  0.32334216  0.64442408    -0.88800
C1651       C  0.81446374  0.26113236  0.52031468     0.85100
O1652       O  0.86434737  0.28941355  0.65614760    -0.67000
O1653       O  0.79143714  0.20124189  0.60927954    -0.86300
C1654       C  0.87074811  0.27839032  0.62655383     0.85900
C1655       C  0.82980867  0.32545802  0.60852940     1.07500
H1656       H  0.83252962  0.23350535  0.60035331     0.39300
O1657       O  0.81770037  0.24196816  0.60352226    -1.09000
O1658       O  0.77731682  0.24662608  0.65319995    -0.65600
Ni1659     Ni  0.81172970  0.24478463  0.65626841     1.26300
O1660       O  0.85609029  0.27039203  0.60257118    -0.65800
O1661       O  0.80940874  0.21138030  0.66347139    -0.78100
C1662       C  0.82344717  0.25911803  0.72956909     0.85300
O1663       O  0.80797986  0.24896619  0.70943226    -0.65300
Ni1664     Ni  0.79492195  0.22646447  0.57279876     1.27400
Ni1665     Ni  0.82254843  0.27485692  0.59461474     1.26100
H1666       H  0.79879710  0.28503857  0.64757821     0.39900
N1667       N  0.56657336  0.24443499  0.68430149    -0.02700
C1668       C  0.54670709  0.24152334  0.66279330    -0.00100
C1669       C  0.55233301  0.24195163  0.62483959    -0.23000
C1670       C  0.57622053  0.24495904  0.62240013    -0.23200
C1671       C  0.58473130  0.24668471  0.65890028    -0.00200
H1672       H  0.54026503  0.23987993  0.60136397     0.13600
H1673       H  0.58642086  0.24576132  0.59658328     0.13600
N1674       N  0.56955827  0.25826047  0.96858812    -0.02700
C1675       C  0.58886722  0.26670424  0.98674763    -0.00100
C1676       C  0.58339606  0.27251399  0.02365111    -0.23000
C1677       C  0.55998966  0.26722741  0.02875020    -0.23200
C1678       C  0.55196383  0.25834796  0.99480134    -0.00200
H1679       H  0.59544200  0.27892373  0.04496411     0.13600
H1680       H  0.55000397  0.26930231  0.05458485     0.13600
N1681       N  0.31429881  0.98884081  0.94497745    -0.02700
C1682       C  0.31416271  0.97041151  0.91975879    -0.00100
C1683       C  0.31048523  0.97888784  0.88354479    -0.23000
C1684       C  0.30874915  0.00295730  0.88580776    -0.23200
C1685       C  0.31104157  0.00886267  0.92345223    -0.00200
H1686       H  0.30953410  0.96852558  0.85793506     0.13600
H1687       H  0.30621139  0.01501990  0.86231072     0.13600
N1688       N  0.33253581  0.98780007  0.73222754    -0.02700
C1689       C  0.33307726  0.00499004  0.75896249    -0.00100
C1690       C  0.33807979  0.99532931  0.79405147    -0.23000
C1691       C  0.34075091  0.97140122  0.78883051    -0.23200
C1692       C  0.33738951  0.96733867  0.75082176    -0.00200
H1693       H  0.33990342  0.00471558  0.82045211     0.13600
H1694       H  0.34442845  0.95825496  0.81029820     0.13600
N1695       N  0.07323985  0.26092480  0.80828630    -0.02700
C1696       C  0.05555256  0.26200939  0.78220540    -0.00100
C1697       C  0.06409825  0.25625139  0.74678889    -0.23000
C1698       C  0.08773181  0.25142548  0.75095763    -0.23200
C1699       C  0.09297063  0.25447484  0.78868527    -0.00200
H1700       H  0.05411718  0.25529439  0.72081611     0.13600
H1701       H  0.09996204  0.24643623  0.72889206     0.13600
N1702       N  0.06878622  0.27361744  0.59516737    -0.02700
C1703       C  0.08754089  0.27474544  0.61953890    -0.00100
C1704       C  0.07979008  0.28072803  0.65530742    -0.23000
C1705       C  0.05573328  0.28311909  0.65351807    -0.23200
C1706       C  0.04919277  0.27871989  0.61663117    -0.00200
H1707       H  0.09055829  0.28263193  0.68034866     0.13600
H1708       H  0.04407652  0.28733034  0.67686982     0.13600
O1709       O  0.31417418  0.26515782  0.99774574    -0.80100
O1710       O  0.30918396  0.24851681  0.82650304    -0.64800
O1711       O  0.30542546  0.23878330  0.93227213    -1.11400
C1712       C  0.38594069  0.22103359  0.92465099     1.06800
O1713       O  0.33487621  0.21953660  0.81404302    -0.78000
O1714       O  0.33566263  0.19184331  0.87664364    -0.65600
Ni1715     Ni  0.28852266  0.26129630  0.96288240     1.34900
C1716       C  0.33326708  0.18564894  0.91088301     0.85500
O1717       O  0.27370112  0.24693756  0.87417695    -0.78500
O1718       O  0.26102122  0.25843341  0.93158769    -0.88800
C1719       C  0.31978879  0.23501581  0.80361337     0.85100
O1720       O  0.29765608  0.29010096  0.93804243    -0.67000
O1721       O  0.37957802  0.21027054  0.89482374    -0.86300
C1722       C  0.30587733  0.29452084  0.90536771     0.85900
C1723       C  0.25742650  0.25238785  0.89741520     1.07500
H1724       H  0.34838123  0.25521422  0.88106219     0.39300
O1725       O  0.34038983  0.24046899  0.88597992    -1.09000
O1726       O  0.33616779  0.20065416  0.93756871    -0.65600
Ni1727     Ni  0.33859691  0.23543790  0.93941241     1.26300
O1728       O  0.31036046  0.27828910  0.88147768    -0.65800
O1729       O  0.37186898  0.23331932  0.94463013    -0.78100
C1730       C  0.32531766  0.24803209  0.01286492     0.85300
O1731       O  0.33538975  0.23231642  0.99280784    -0.65300
Ni1732     Ni  0.35549309  0.21603140  0.85712261     1.27400
Ni1733     Ni  0.30700137  0.24419634  0.87934213     1.26100
H1734       H  0.29804892  0.22361544  0.93628534     0.39900
O1735       O  0.34168990  0.23008931  0.56844418    -0.80100
O1736       O  0.32888224  0.22754306  0.74020592    -0.64800
O1737       O  0.31574943  0.22284406  0.63551220    -1.11400
C1738       C  0.30294908  0.30426978  0.64373519     1.06800
O1739       O  0.29790438  0.25062174  0.75218211    -0.78000
O1740       O  0.26962934  0.26004637  0.69105361    -0.65600
Ni1741     Ni  0.33664062  0.20477710  0.60381351     1.34900
C1742       C  0.26414152  0.25794600  0.65638334     0.85500
O1743       O  0.32594395  0.19111694  0.69402980    -0.78500
O1744       O  0.33253965  0.17759688  0.63550736    -0.88800
C1745       C  0.31521269  0.23784234  0.76321186     0.85100
O1746       O  0.36630707  0.21240060  0.62711348    -0.67000
O1747       O  0.29529396  0.29975994  0.67682915    -0.86300
C1748       C  0.37164056  0.22208136  0.65829400     0.85900
C1749       C  0.32895468  0.17429589  0.67066920     1.07500
H1750       H  0.33464965  0.26523642  0.68487164     0.39300
O1751       O  0.31956484  0.25770653  0.68098333    -1.09000
O1752       O  0.27971637  0.25634476  0.63034063    -0.65600
Ni1753     Ni  0.31414209  0.25615909  0.62792959     1.26300
O1754       O  0.35629656  0.22786642  0.68273195    -0.65800
O1755       O  0.31317205  0.28936906  0.62235908    -0.78100
C1756       C  0.32547726  0.24286271  0.55409021     0.85300
O1757       O  0.31029499  0.25325214  0.57468417    -0.65300
Ni1758     Ni  0.29729119  0.27399374  0.71218002     1.27400
Ni1759     Ni  0.32276149  0.22448675  0.68805160     1.26100
H1760       H  0.30010387  0.21631602  0.63278495     0.39900
C1761       C  0.19931657  0.27828947  0.65418642    -0.04700
C1762       C  0.18941431  0.26317585  0.62690313     0.09500
C1763       C  0.20426957  0.24695244  0.60775707    -0.02000
C1764       C  0.22864493  0.24511980  0.61696212    -0.00300
C1765       C  0.23838393  0.25935581  0.64589251    -0.03900
C1766       C  0.22357617  0.27654729  0.66347759     0.03100
C1767       C  0.16315383  0.26399577  0.61940779     0.09900
C1768       C  0.19441408  0.23239454  0.57811475     0.35800
C1769       C  0.23346802  0.29357607  0.68963065     0.39300
C1770       C  0.15309691  0.28180234  0.59615591    -0.04300
C1771       C  0.12816956  0.28418574  0.59289354     0.02900
C1772       C  0.11305974  0.26860875  0.61265284    -0.03900
C1773       C  0.12332554  0.24992409  0.63408305    -0.00100
C1774       C  0.14812102  0.24788074  0.63791341    -0.02700
C1775       C  0.16849595  0.29852665  0.57735731     0.36600
C1776       C  0.10821503  0.23299699  0.65313776     0.40200
C1777       C  0.11831348  0.30360062  0.57108947     0.39300
C1778       C  0.15815131  0.23007713  0.66295852     0.36300
C1779       C  0.18454047  0.29606694  0.67225908     0.36900
C1780       C  0.24358762  0.22858531  0.59650531     0.40200
N1781       N  0.11101319  0.31929208  0.55341867    -0.37900
N1782       N  0.18087636  0.31193571  0.56268500    -0.39500
N1783       N  0.09608586  0.21935191  0.66780495    -0.37200
N1784       N  0.16613142  0.21602779  0.68322765    -0.39600
N1785       N  0.18646625  0.22090812  0.55434377    -0.39400
N1786       N  0.25552924  0.21554621  0.57986219    -0.37000
N1787       N  0.24132741  0.30727387  0.71027913    -0.38100
N1788       N  0.17288292  0.31045369  0.68639319    -0.39700
C1789       C  0.20185007  0.23049796  0.85005289    -0.04700
C1790       C  0.18695845  0.25052889  0.85333965     0.09500
C1791       C  0.19491692  0.27089838  0.87235839    -0.02000
C1792       C  0.21799942  0.27150853  0.88704541    -0.00300
C1793       C  0.23290019  0.25148777  0.88369489    -0.03900
C1794       C  0.22460571  0.23077603  0.86596662     0.03100
C1795       C  0.16307645  0.25049602  0.83574998     0.09900
C1796       C  0.17945505  0.29137151  0.87619458     0.35800
C1797       C  0.23924125  0.20954114  0.86493268     0.39300
C1798       C  0.14481149  0.23682680  0.85159505    -0.04300
C1799       C  0.12228710  0.23683248  0.83473771     0.02900
C1800       C  0.11733232  0.25221129  0.80414656    -0.03900
C1801       C  0.13589956  0.26549906  0.78779384    -0.00100
C1802       C  0.15883218  0.26407059  0.80295195    -0.02700
C1803       C  0.14926399  0.22268631  0.88519726     0.36600
C1804       C  0.13140479  0.28127992  0.75610211     0.40200
C1805       C  0.10497375  0.21977152  0.84731256     0.39300
C1806       C  0.17816709  0.27650228  0.78479530     0.36300
C1807       C  0.19391280  0.20980034  0.82960841     0.36900
C1808       C  0.22675931  0.29304919  0.90414776     0.40200
N1809       N  0.09173846  0.20559283  0.85746495    -0.37900
N1810       N  0.15289397  0.21138551  0.91193552    -0.39500
N1811       N  0.12781826  0.29391505  0.73091527    -0.37200
N1812       N  0.19366817  0.28628660  0.77037998    -0.39600
N1813       N  0.16715394  0.30773321  0.87907277    -0.39400
N1814       N  0.23390873  0.31017952  0.91768832    -0.37000
N1815       N  0.25083327  0.19256850  0.86435672    -0.38100
N1816       N  0.18755014  0.19331702  0.81329409    -0.39700
C1817       C  0.05584331  0.25251976  0.91079494    -0.04700
C1818       C  0.07121457  0.26835771  0.92903899     0.09500
C1819       C  0.08640929  0.28256993  0.90711186    -0.02000
C1820       C  0.08586371  0.28130193  0.86725505    -0.00300
C1821       C  0.07143129  0.26449364  0.84890458    -0.03900
C1822       C  0.05648166  0.25003586  0.87112517     0.03100
C1823       C  0.07104325  0.26704409  0.47409495     0.09900
C1824       C  0.10309981  0.29803660  0.92570299     0.35800
C1825       C  0.04324610  0.23108802  0.85391446     0.39300
C1826       C  0.08004131  0.24867375  0.49726776    -0.04300
C1827       C  0.07895576  0.25052102  0.53711771     0.02900
C1828       C  0.06977211  0.27123329  0.55430418    -0.03900
C1829       C  0.06212725  0.29012999  0.53088637    -0.00100
C1830       C  0.06206816  0.28778493  0.49116714    -0.02700
C1831       C  0.09059747  0.22787540  0.47994450     0.36600
C1832       C  0.05611424  0.31280420  0.54730953     0.40200
C1833       C  0.08679013  0.23070185  0.55996250     0.39300
C1834       C  0.05283297  0.30685158  0.46775341     0.36300
C1835       C  0.03970990  0.23830739  0.93310519     0.36900
C1836       C  0.09987590  0.29768961  0.84525999     0.40200
N1837       N  0.09298703  0.21425834  0.57693398    -0.37900
N1838       N  0.10085652  0.21501342  0.95868468    -0.39500
N1839       N  0.05197628  0.33139874  0.55929910    -0.37200
N1840       N  0.04437938  0.32460418  0.95064216    -0.39600
N1841       N  0.11647401  0.31024441  0.94067026    -0.39400
N1842       N  0.11098237  0.31112298  0.82819835    -0.37000
N1843       N  0.03286203  0.21542205  0.84130913    -0.38100
N1844       N  0.02689604  0.22698167  0.95099262    -0.39700
C1845       C  0.30852212  0.06350431  0.72296305    -0.04700
C1846       C  0.32774387  0.07855762  0.72999525     0.09500
C1847       C  0.34760192  0.07014821  0.75013740    -0.02000
C1848       C  0.34885010  0.04628995  0.76130901    -0.00300
C1849       C  0.33031586  0.03070850  0.75180636    -0.03900
C1850       C  0.30958313  0.03972875  0.73464286     0.03100
C1851       C  0.32761435  0.10302089  0.71454523     0.09900
C1852       C  0.36710060  0.08591451  0.75814113     0.35800
C1853       C  0.28878568  0.02513467  0.73091594     0.39300
C1854       C  0.31383102  0.12080129  0.73176886    -0.04300
C1855       C  0.31357998  0.14385489  0.71667669     0.02900
C1856       C  0.32816519  0.14956675  0.68525348    -0.03900
C1857       C  0.34192942  0.13142792  0.66802718    -0.00100
C1858       C  0.34121790  0.10819523  0.68226786    -0.02700
C1859       C  0.29975016  0.11527532  0.76493792     0.36600
C1860       C  0.35727548  0.13641188  0.63609032     0.40200
C1861       C  0.29743877  0.16124376  0.73275115     0.39300
C1862       C  0.35443404  0.08942291  0.66360880     0.36300
C1863       C  0.28788496  0.07240789  0.70292202     0.36900
C1864       C  0.36969314  0.03768945  0.78116383     0.40200
N1865       N  0.28447261  0.17502484  0.74550296    -0.37900
N1866       N  0.28843762  0.11089169  0.79128172    -0.39500
N1867       N  0.36947202  0.14020871  0.61052402    -0.37200
N1868       N  0.36490523  0.07440726  0.64881265    -0.39600
N1869       N  0.38270538  0.09846242  0.76424889    -0.39400
N1870       N  0.38632369  0.03085051  0.79696968    -0.37000
N1871       N  0.27163851  0.01423213  0.72832071    -0.38100
N1872       N  0.27145737  0.07959491  0.68696950    -0.39700
C1873       C  0.33204104  0.06994081  0.95561999    -0.04700
C1874       C  0.31388999  0.08466361  0.94105060     0.09500
C1875       C  0.29319901  0.07416878  0.92681861    -0.02000
C1876       C  0.29156249  0.04928594  0.92392696    -0.00300
C1877       C  0.31054186  0.03437244  0.93583686    -0.03900
C1878       C  0.33059437  0.04496379  0.95252679     0.03100
C1879       C  0.31832584  0.11065938  0.93414581     0.09900
C1880       C  0.27405200  0.08915324  0.91316851     0.35800
C1881       C  0.35099356  0.03063954  0.96258025     0.39300
C1882       C  0.32582924  0.11805079  0.89806332    -0.04300
C1883       C  0.33068037  0.14212620  0.89058813     0.02900
C1884       C  0.32769619  0.15976584  0.91925108    -0.03900
C1885       C  0.31999888  0.15201228  0.95565862    -0.00100
C1886       C  0.31539466  0.12768856  0.96285159    -0.02700
C1887       C  0.32882420  0.10053636  0.86835144     0.36600
C1888       C  0.31663102  0.16876892  0.98618143     0.40200
C1889       C  0.33950741  0.14802181  0.85316584     0.39300
C1890       C  0.30749733  0.12005972  0.99991329     0.36300
C1891       C  0.35289286  0.08066208  0.97185507     0.36900
C1892       C  0.27076343  0.03917670  0.90638430     0.40200
N1893       N  0.34653428  0.15241663  0.82323062    -0.37900
N1894       N  0.33110245  0.08653728  0.84478861    -0.39500
N1895       N  0.31395427  0.18191215  0.01087642    -0.37200
N1896       N  0.30120988  0.11390937  0.02946502    -0.39600
N1897       N  0.25878901  0.10110418  0.90225052    -0.39400
N1898       N  0.25424328  0.03115377  0.89216562    -0.37000
N1899       N  0.36770233  0.01972863  0.97037253    -0.38100
N1900       N  0.36944217  0.08929181  0.98500454    -0.39700
C1901       C  0.34272424  0.00398226  0.62971975    -0.04700
C1902       C  0.32501784  0.99063408  0.61173963     0.09500
C1903       C  0.30856280  0.97813708  0.63395443    -0.02000
C1904       C  0.30992404  0.97885016  0.67371425    -0.00300
C1905       C  0.32893616  0.99039109  0.69177354    -0.03900
C1906       C  0.34530283  0.00305384  0.66939502     0.03100
C1907       C  0.32029252  0.99029449  0.06620849     0.09900
C1908       C  0.29040844  0.96413677  0.61584022     0.35800
C1909       C  0.36580408  0.01375962  0.68657900     0.39300
C1910       C  0.33718731  0.97781183  0.04449159    -0.04300
C1911       C  0.33539742  0.97724482  0.00460598     0.02900
C1912       C  0.31578156  0.98787153  0.98605805    -0.03900
C1913       C  0.29801674  0.99882881  0.00838624    -0.00100
C1914       C  0.30083048  0.00103516  0.04787056    -0.02700
C1915       C  0.35649223  0.96552059  0.06340507     0.36600
C1916       C  0.27603849  0.00661155  0.99127953     0.40200
C1917       C  0.35455849  0.96676974  0.98318404     0.39300
C1918       C  0.28373654  0.01455719  0.06972039     0.36300
C1919       C  0.35846833  0.01846590  0.60718694     0.36900
C1920       C  0.29109496  0.96836581  0.69562738     0.40200
N1921       N  0.37055924  0.95846636  0.96756373    -0.37900
N1922       N  0.37179838  0.95571915  0.07869893    -0.39500
N1923       N  0.25805220  0.01250688  0.97866819    -0.37200
N1924       N  0.27019142  0.02540547  0.08721323    -0.39600
N1925       N  0.27593112  0.95300198  0.60135722    -0.39400
N1926       N  0.27523219  0.96031058  0.71168980    -0.37000
N1927       N  0.38261147  0.02211477  0.69933748    -0.38100
N1928       N  0.37089442  0.03009660  0.58910075    -0.39700
C1929       C  0.50155935  0.21737689  0.96904489    -0.04700
C1930       C  0.48204654  0.23283042  0.97245055     0.09500
C1931       C  0.48504905  0.25568826  0.98738999    -0.02000
C1932       C  0.50782772  0.26375882  0.99617026    -0.00300
C1933       C  0.52774319  0.24912623  0.98911227    -0.03900
C1934       C  0.52436960  0.22537927  0.97810614     0.03100
C1935       C  0.45828307  0.22563223  0.95906511     0.09900
C1936       C  0.46462197  0.27096040  0.99329970     0.35800
C1937       C  0.54382224  0.20856976  0.97964086     0.39300
C1938       C  0.44111803  0.21791916  0.98514091    -0.04300
C1939       C  0.41757200  0.21483952  0.97338000     0.02900
C1940       C  0.41111232  0.21997952  0.93566429    -0.03900
C1941       C  0.42863658  0.22661904  0.90914775    -0.00100
C1942       C  0.45223953  0.22919577  0.92082887    -0.02700
C1943       C  0.44753713  0.21429436  0.02441091     0.36600
C1944       C  0.42215697  0.23273701  0.87058853     0.40200
C1945       C  0.39996517  0.20663355  0.00014130     0.39300
C1946       C  0.47012145  0.23684925  0.89402979     0.36300
C1947       C  0.49803189  0.19321547  0.95668782     0.36900
C1948       C  0.51061223  0.28711574  0.01240087     0.40200
N1949       N  0.38593685  0.20002046  0.02145568    -0.37900
N1950       N  0.45269910  0.21160165  0.05577252    -0.39500
N1951       N  0.41696601  0.23779614  0.83995111    -0.37200
N1952       N  0.48441720  0.24295386  0.87277189    -0.39600
N1953       N  0.44825209  0.28299856  0.99814995    -0.39400
N1954       N  0.51275373  0.30569469  0.02557160    -0.37000
N1955       N  0.55884711  0.19462189  0.98191093    -0.38100
N1956       N  0.49518778  0.17391546  0.94695951    -0.39700
C1957       C  0.43580925  0.24134904  0.64704682    -0.04700
C1958       C  0.44589811  0.23327724  0.68128563     0.09500
C1959       C  0.43130215  0.22325506  0.70926886    -0.02000
C1960       C  0.40691208  0.22008032  0.70221258    -0.00300
C1961       C  0.39701080  0.22682341  0.66687894    -0.03900
C1962       C  0.41150181  0.23818936  0.63985315     0.03100
C1963       C  0.47228111  0.23304519  0.68529514     0.09900
C1964       C  0.44156575  0.21571331  0.74492126     0.35800
C1965       C  0.40136933  0.24724677  0.60496868     0.39300
C1966       C  0.48428515  0.25242183  0.70112076    -0.04300
C1967       C  0.50901315  0.25473169  0.69606535     0.02900
C1968       C  0.52187642  0.23732185  0.67577940    -0.03900
C1969       C  0.50984360  0.21704014  0.66244654    -0.00100
C1970       C  0.48530243  0.21477773  0.66783553    -0.02700
C1971       C  0.47097687  0.27036118  0.72140909     0.36600
C1972       C  0.52249131  0.19880345  0.64158995     0.40200
C1973       C  0.52053826  0.27610718  0.70859524     0.39300
C1974       C  0.47312645  0.19400260  0.65402813     0.36300
C1975       C  0.45071416  0.25254912  0.61886492     0.36900
C1976       C  0.39228536  0.20902081  0.73087568     0.40200
N1977       N  0.52928999  0.29343527  0.71858019    -0.37900
N1978       N  0.46036511  0.28456302  0.73790226    -0.39500
N1979       N  0.53251219  0.18430244  0.62482356    -0.37200
N1980       N  0.46333102  0.17744037  0.64324572    -0.39600
N1981       N  0.44977511  0.20976904  0.77340126    -0.39400
N1982       N  0.38062596  0.20026184  0.75380802    -0.37000
N1983       N  0.39340518  0.25466036  0.57718389    -0.38100
N1984       N  0.46275410  0.26142467  0.59657007    -0.39700
C1985       C  0.55238264  0.26685747  0.86613744    -0.04700
C1986       C  0.56722066  0.25025695  0.84801691     0.09500
C1987       C  0.58153238  0.23499814  0.87005249    -0.02000
C1988       C  0.58133871  0.23662855  0.90991280    -0.00300
C1989       C  0.56738617  0.25411049  0.92817490    -0.03900
C1990       C  0.55281399  0.26912463  0.90585355     0.03100
C1991       C  0.56752582  0.24863717  0.80564100     0.09900
C1992       C  0.59657008  0.21765391  0.85147629     0.35800
C1993       C  0.53958922  0.28825542  0.92317483     0.39300
C1994       C  0.57833011  0.26640143  0.78362537    -0.04300
C1995       C  0.57753768  0.26534119  0.74373579     0.02900
C1996       C  0.56769672  0.24548235  0.72535763    -0.03900
C1997       C  0.55789793  0.22718696  0.74781230    -0.00100
C1998       C  0.55672737  0.22940370  0.78747794    -0.02700
C1999       C  0.58995726  0.28602440  0.80209389     0.35000
C2000       C  0.55010368  0.20536156  0.73077150     0.40200
C2001       C  0.58528696  0.28560286  0.72204747     0.39300
C2002       C  0.54385103  0.21216144  0.80975167     0.36300
C2003       C  0.53675775  0.28177462  0.84368668     0.36900
C2004       C  0.59546028  0.22010310  0.93179987     0.40200
N2005       N  0.59119580  0.30232442  0.70575539    -0.37900
N2006       N  0.59925356  0.30168760  0.81674615    -0.39500
N2007       N  0.54411619  0.18743396  0.71849089    -0.37200
N2008       N  0.53339144  0.19865544  0.82769733    -0.39600
N2009       N  0.60837156  0.20378353  0.83636223    -0.39400
N2010       N  0.60685813  0.20650797  0.94838235    -0.37000
N2011       N  0.52908320  0.30397249  0.93590280    -0.38100
N2012       N  0.52432333  0.29359878  0.82562724    -0.39700
C2013       C  0.70314288  0.26466342  0.67276670    -0.04700
C2014       C  0.68711685  0.24924538  0.65497244     0.09500
C2015       C  0.69564634  0.23294587  0.62801314    -0.02000
C2016       C  0.71993038  0.23212630  0.61865134    -0.00300
C2017       C  0.73616233  0.24781604  0.63601221    -0.03900
C2018       C  0.72751174  0.26405893  0.66327895     0.03100
C2019       C  0.66093715  0.25105629  0.66238234     0.09900
C2020       C  0.67927221  0.21695795  0.60974106     0.35800
C2021       C  0.74344035  0.28077843  0.68068412     0.39300
C2022       C  0.64739975  0.26849376  0.64356534    -0.04300
C2023       C  0.62250735  0.26851776  0.64633000     0.02900
C2024       C  0.61062596  0.25024058  0.66620816    -0.03900
C2025       C  0.62429943  0.23320674  0.68607495    -0.00100
C2026       C  0.64934374  0.23407558  0.68501555    -0.02700
C2027       C  0.65908168  0.28564201  0.61946476     0.36600
C2028       C  0.61296227  0.21349176  0.70475496     0.40200
C2029       C  0.60908115  0.28725284  0.62784427     0.39300
C2030       C  0.66329489  0.21685492  0.70594969     0.36300
C2031       C  0.69442004  0.28116663  0.70090066     0.36900
C2032       C  0.72812765  0.21449329  0.59177933     0.40200
N2033       N  0.59841993  0.30237903  0.61354233    -0.37900
N2034       N  0.66843887  0.29916157  0.60002686    -0.39500
N2035       N  0.60444667  0.19739389  0.71958479    -0.37200
N2036       N  0.67444951  0.20318164  0.72278082    -0.39600
N2037       N  0.66619958  0.20416631  0.59535095    -0.39400
N2038       N  0.73457448  0.20045190  0.57027770    -0.37000
N2039       N  0.75607043  0.29421916  0.69456141    -0.38100
N2040       N  0.68733315  0.29426159  0.72338135    -0.39700
C2041       C  0.98719714  0.25566711  0.59492428    -0.04700
C2042       C  0.97307284  0.27562092  0.60379000     0.09500
C2043       C  0.98418285  0.29716769  0.61245052    -0.02000
C2044       C  0.00911817  0.29861497  0.61354076    -0.00300
C2045       C  0.02351755  0.27853751  0.60537825    -0.03900
C2046       C  0.01225833  0.25707235  0.59573986     0.03100
C2047       C  0.94656640  0.27371239  0.60764758     0.09900
C2048       C  0.96980167  0.31754937  0.62276155     0.35800
C2049       C  0.02615323  0.23568899  0.59064942     0.39300
C2050       C  0.93661260  0.26530427  0.64172920    -0.04300
C2051       C  0.91186706  0.26627865  0.64763658     0.02900
C2052       C  0.89668579  0.27541738  0.61923151    -0.03900
C2053       C  0.90663256  0.28310538  0.58454945    -0.00100
C2054       C  0.93143183  0.28230092  0.57889540    -0.02700
C2055       C  0.95204753  0.25610131  0.67107624     0.36600
C2056       C  0.89151618  0.29315901  0.55539492     0.40200
C2057       C  0.90204862  0.25774683  0.68299312     0.39300
C2058       C  0.94152000  0.29093904  0.54383234     0.36300
C2059       C  0.97584158  0.23326876  0.58731088     0.36900
C2060       C  0.01980859  0.32054335  0.62581342     0.40200
N2061       N  0.89423255  0.25093313  0.71120513    -0.37900
N2062       N  0.96458815  0.24876063  0.69420158    -0.39500
N2063       N  0.87947497  0.30124698  0.53218611    -0.37200
N2064       N  0.94960626  0.29788843  0.51590579    -0.39600
N2065       N  0.95824427  0.33369367  0.63115319    -0.39400
N2066       N  0.02812835  0.33804480  0.63600868    -0.37000
N2067       N  0.03669134  0.21821650  0.58697808    -0.38100
N2068       N  0.96673935  0.21536366  0.58160914    -0.39700
C2069       C  0.68960936  0.24160352  0.90143081    -0.04700
C2070       C  0.68416311  0.25861838  0.92913399     0.09500
C2071       C  0.70186178  0.27352232  0.94325859    -0.02000
C2072       C  0.72498519  0.27194705  0.92890210    -0.00300
C2073       C  0.73073143  0.25470882  0.90124207    -0.03900
C2074       C  0.71289464  0.23942211  0.88771832     0.03100
C2075       C  0.65966848  0.26084597  0.94380102     0.09900
C2076       C  0.69620974  0.29041873  0.97281247     0.35800
C2077       C  0.71845098  0.22098646  0.86055497     0.39300
C2078       C  0.65308067  0.24822812  0.97642763    -0.04300
C2079       C  0.62991045  0.25025805  0.99036793     0.02900
C2080       C  0.61343640  0.26555312  0.97234066    -0.03900
C2081       C  0.62042890  0.27895242  0.94056169    -0.00100
C2082       C  0.64335281  0.27605856  0.92567277    -0.02700
C2083       C  0.67015453  0.23301198  0.99544378     0.36600
C2084       C  0.60454002  0.29637116  0.92404998     0.40200
C2085       C  0.62274469  0.23556120  0.02204526     0.39300
C2086       C  0.65025116  0.28863588  0.89164686     0.36300
C2087       C  0.67120598  0.22619795  0.88741952     0.36900
C2088       C  0.74251481  0.28875970  0.94176185     0.40200
N2089       N  0.61700669  0.22359477  0.04695622    -0.37900
N2090       N  0.68377945  0.22095467  0.01071197    -0.39500
N2091       N  0.59220822  0.31054885  0.91073184    -0.37200
N2092       N  0.65581654  0.29847682  0.86436142    -0.39600
N2093       N  0.69171039  0.30374936  0.99656814    -0.39400
N2094       N  0.75647108  0.30218127  0.95195997    -0.37000
N2095       N  0.72279433  0.20627402  0.83888236    -0.38100
N2096       N  0.65650423  0.21391943  0.87631294    -0.39700
C2097       C  0.93960556  0.28608684  0.79819746    -0.04700
C2098       C  0.95774605  0.27867201  0.82296593     0.09500
C2099       C  0.95234618  0.27230736  0.86049704    -0.02000
C2100       C  0.92871387  0.27244212  0.87294063    -0.00300
C2101       C  0.91030874  0.27893751  0.84773433    -0.03900
C2102       C  0.91587769  0.28603287  0.81041520     0.03100
C2103       C  0.98243757  0.27575712  0.80901959     0.09900
C2104       C  0.97118829  0.26515421  0.88606002     0.35800
C2105       C  0.89727891  0.29362661  0.78473746     0.39300
C2106       C  0.99957631  0.29299048  0.81696722    -0.04300
C2107       C  0.02341430  0.28894357  0.80710808     0.02900
C2108       C  0.03021529  0.26742293  0.78985877    -0.03900
C2109       C  0.01263579  0.25091677  0.77954283    -0.00100
C2110       C  0.98891864  0.25487607  0.78988065    -0.02700
C2111       C  0.99263518  0.31470729  0.83584298     0.36600
C2112       C  0.01892933  0.22934049  0.75960179     0.40200
C2113       C  0.04055619  0.30748939  0.81294808     0.39300
C2114       C  0.97126121  0.23699380  0.78231593     0.36300
C2115       C  0.94544579  0.29395357  0.76028574     0.36900
C2116       C  0.92338155  0.26474918  0.91118906     0.40200
N2117       N  0.05382925  0.32270530  0.81737092    -0.37900
N2118       N  0.98704676  0.33197990  0.85102013    -0.39500
N2119       N  0.02389498  0.21215321  0.74364809    -0.37200
N2120       N  0.95715663  0.22274868  0.77640523    -0.39600
N2121       N  0.98629712  0.25957657  0.90633971    -0.39400
N2122       N  0.91923247  0.25859282  0.94169811    -0.37000
N2123       N  0.88244214  0.29965889  0.76425317    -0.38100
N2124       N  0.95007983  0.30048123  0.73016348    -0.39700
C2125       C  0.79759171  0.12912148  0.64758218    -0.04700
C2126       C  0.78807244  0.12548698  0.68393388     0.09500
C2127       C  0.78175215  0.14504053  0.70654382    -0.02000
C2128       C  0.78537869  0.16826448  0.69316050    -0.00300
C2129       C  0.79531676  0.17201643  0.65691930    -0.03900
C2130       C  0.80112238  0.15228683  0.63398924     0.03100
C2131       C  0.78556907  0.10094008  0.69895999     0.09900
C2132       C  0.77132458  0.14114686  0.74349646     0.35800
C2133       C  0.81126549  0.15570179  0.59667431     0.39300
C2134       C  0.80373809  0.09098898  0.72129501    -0.04300
C2135       C  0.80164492  0.06774034  0.73524112     0.02900
C2136       C  0.78224311  0.05368480  0.72428242    -0.03900
C2137       C  0.76360247  0.06399756  0.70326582    -0.00100
C2138       C  0.76520435  0.08765812  0.69083940    -0.02700
C2139       C  0.82493073  0.10449954  0.72876150     0.36600
C2140       C  0.74218830  0.05079036  0.69633337     0.40200
C2141       C  0.81980269  0.05817607  0.76006127     0.39300
C2142       C  0.74589047  0.09845035  0.66987304     0.36300
C2143       C  0.80397925  0.10892049  0.62435848     0.36900
C2144       C  0.77802382  0.18822101  0.71618700     0.40200
N2145       N  0.83442178  0.05065119  0.77968863    -0.37900
N2146       N  0.84186921  0.11532043  0.73425916    -0.39500
N2147       N  0.72482569  0.04060842  0.69113400    -0.37200
N2148       N  0.73043241  0.10712067  0.65331283    -0.39600
N2149       N  0.76293947  0.13794602  0.77289715    -0.39400
N2150       N  0.77205811  0.20408222  0.73459104    -0.37000
N2151       N  0.81925444  0.15840776  0.56685538    -0.38100
N2152       N  0.80904392  0.09278602  0.60589310    -0.39700
C2153       C  0.78098551  0.09592427  0.89207317    -0.04700
C2154       C  0.79971677  0.10785447  0.90979700     0.09500
C2155       C  0.81660712  0.09471234  0.93069056    -0.02000
C2156       C  0.81566599  0.06964349  0.93167678    -0.00300
C2157       C  0.79809796  0.05756455  0.91105085    -0.03900
C2158       C  0.78050679  0.07098806  0.89176465     0.03100
C2159       C  0.80264401  0.13396800  0.90302415     0.09900
C2160       C  0.83565329  0.10700266  0.94949539     0.35800
C2161       C  0.76240314  0.05914982  0.86989462     0.39300
C2162       C  0.79465832  0.15062539  0.92979315    -0.04300
C2163       C  0.79531383  0.17511045  0.92146523     0.02900
C2164       C  0.80356881  0.18319168  0.88579603    -0.03900
C2165       C  0.81242900  0.16642737  0.85959326    -0.00100
C2166       C  0.81200496  0.14198978  0.86827087    -0.02700
C2167       C  0.78496221  0.14246892  0.96543953     0.36600
C2168       C  0.82249475  0.17426034  0.82399921     0.40200
C2169       C  0.78648696  0.19183566  0.94924790     0.39300
C2170       C  0.82093553  0.12485113  0.84126645     0.36300
C2171       C  0.76261306  0.10943974  0.87290552     0.36900
C2172       C  0.83388450  0.05639755  0.95145856     0.40200
N2173       N  0.77952179  0.20511086  0.97156067    -0.37900
N2174       N  0.77717265  0.13597624  0.99385916    -0.39500
N2175       N  0.83064434  0.18040877  0.79563475    -0.37200
N2176       N  0.82799140  0.11088563  0.82015452    -0.39600
N2177       N  0.85084930  0.11689085  0.96441600    -0.39400
N2178       N  0.84859107  0.04611700  0.96742629    -0.37000
N2179       N  0.74791898  0.04980213  0.85246810    -0.38100
N2180       N  0.74793324  0.12029842  0.85785490    -0.39700
C2181       C  0.80483281  0.02107679  0.61140083    -0.04700
C2182       C  0.78720790  0.00996541  0.58976040     0.09500
C2183       C  0.76786085  0.99930367  0.60812213    -0.02000
C2184       C  0.76584305  0.00026923  0.64781186    -0.00300
C2185       C  0.78385687  0.01072530  0.66976076    -0.03900
C2186       C  0.80339836  0.02110855  0.65119208     0.03100
C2187       C  0.79160071  0.01136054  0.04552010     0.09900
C2188       C  0.75023129  0.98694323  0.58606383     0.35800
C2189       C  0.82298968  0.03044535  0.67261545     0.39300
C2190       C  0.80956823  0.99812824  0.02749631    -0.04300
C2191       C  0.81276985  0.99993984  0.98806912     0.02900
C2192       C  0.79607561  0.01226377  0.96543207    -0.03900
C2193       C  0.77736668  0.02462359  0.98357042    -0.00100
C2194       C  0.77602495  0.02527533  0.02342107    -0.02700
C2195       C  0.82470849  0.98247880  0.04952301     0.36600
C2196       C  0.75862556  0.03567630  0.96184418     0.40200
C2197       C  0.83442481  0.99084630  0.97163561     0.39300
C2198       C  0.75864487  0.04037824  0.04186103     0.36300
C2199       C  0.82475341  0.03211980  0.59261391     0.36900
C2200       C  0.74482510  0.99101971  0.66578587     0.40200
N2201       N  0.85229411  0.98405501  0.95978408    -0.37900
N2202       N  0.83319841  0.96760553  0.56939342    -0.39500
N2203       N  0.74293046  0.04436995  0.94591168    -0.37200
N2204       N  0.74405654  0.05265910  0.55924798    -0.39600
N2205       N  0.73626767  0.97705012  0.56833356    -0.39400
N2206       N  0.72773784  0.98373471  0.67939482    -0.37000
N2207       N  0.83936564  0.03759406  0.68835168    -0.38100
N2208       N  0.84071017  0.04076572  0.57760964    -0.39700
C2209       C  0.84175744  0.43110641  0.82701284    -0.04700
C2210       C  0.82196120  0.41727993  0.83690646     0.09500
C2211       C  0.79986145  0.42850255  0.84202964    -0.02000
C2212       C  0.79791756  0.45341737  0.84036804    -0.00300
C2213       C  0.81798804  0.46758336  0.83233469    -0.03900
C2214       C  0.83976832  0.45610738  0.82431878     0.03100
C2215       C  0.82483785  0.39131241  0.84609428     0.09900
C2216       C  0.77925949  0.41439784  0.85094832     0.35800
C2217       C  0.86067105  0.46986544  0.81622245     0.39300
C2218       C  0.83227126  0.38436369  0.88247157    -0.04300
C2219       C  0.83490367  0.36013341  0.89199108     0.02900
C2220       C  0.83031452  0.34206065  0.86478292    -0.03900
C2221       C  0.82231457  0.34942018  0.82824085    -0.00100
C2222       C  0.81950305  0.37379202  0.81928824    -0.02700
C2223       C  0.83713212  0.40244947  0.91041120     0.36600
C2224       C  0.81650134  0.33224663  0.79939580     0.40200
C2225       C  0.84263820  0.35438652  0.93009116     0.39300
C2226       C  0.81085036  0.38099619  0.78236743     0.36300
C2227       C  0.86451469  0.41957443  0.82169051     0.36900
C2228       C  0.77527867  0.46450337  0.84886475     0.40200
N2229       N  0.84867952  0.35008078  0.96062684    -0.37900
N2230       N  0.84096522  0.41697358  0.93248934    -0.39500
N2231       N  0.81181431  0.31886650  0.77591377    -0.37200
N2232       N  0.80380782  0.38682232  0.75304572    -0.39600
N2233       N  0.76279081  0.40317265  0.85795953    -0.39400
N2234       N  0.75726752  0.47337799  0.85573829    -0.37000
N2235       N  0.87767828  0.48035976  0.80963055    -0.38100
N2236       N  0.88265815  0.41027861  0.81773826    -0.39700
C2237       C  0.82589342  0.37851498  0.54115696    -0.04700
C2238       C  0.84010700  0.39502933  0.56015383     0.09500
C2239       C  0.85136036  0.38865804  0.59423694    -0.02000
C2240       C  0.84845914  0.36582984  0.60940830    -0.00300
C2241       C  0.83307121  0.34949411  0.59173195    -0.03900
C2242       C  0.82186001  0.35603363  0.55726523     0.03100
C2243       C  0.84316781  0.41941462  0.54480079     0.09900
C2244       C  0.86610558  0.40569639  0.61364583     0.35800
C2245       C  0.80578242  0.34000888  0.53846856     0.39300
C2246       C  0.82471957  0.43620367  0.54822662    -0.04300
C2247       C  0.82841790  0.45983439  0.53725239     0.02900
C2248       C  0.85087635  0.46700053  0.52431809    -0.03900
C2249       C  0.86880833  0.44980025  0.51836774    -0.00100
C2250       C  0.86490704  0.42604806  0.52852324    -0.02700
C2251       C  0.80181005  0.42907713  0.56262292     0.36600
C2252       C  0.89127499  0.45642924  0.50172075     0.40200
C2253       C  0.80848761  0.47608911  0.53611011     0.39300
C2254       C  0.88317561  0.40832450  0.52212054     0.36300
C2255       C  0.81567889  0.38465950  0.50474939     0.36900
C2256       C  0.86237991  0.35898906  0.64221469     0.40200
N2257       N  0.79209660  0.48842621  0.53442887    -0.37900
N2258       N  0.78346102  0.42336550  0.57374134    -0.39500
N2259       N  0.90919747  0.46167181  0.48840849    -0.37200
N2260       N  0.89768533  0.39413607  0.51696143    -0.39600
N2261       N  0.87787979  0.41932084  0.62892453    -0.39400
N2262       N  0.87360678  0.35353500  0.66821338    -0.37000
N2263       N  0.79294620  0.32731846  0.52331240    -0.38100
N2264       N  0.80767598  0.38960786  0.47565143    -0.39700
C2265       C  0.82715951  0.52288414  0.63440406    -0.04700
C2266       C  0.84389454  0.51136197  0.65776769     0.09500
C2267       C  0.86356469  0.50000646  0.64103919    -0.02000
C2268       C  0.86660446  0.50044886  0.60133298    -0.00300
C2269       C  0.84935980  0.51114667  0.57760178    -0.03900
C2270       C  0.82955056  0.52237853  0.59467246     0.03100
C2271       C  0.83980909  0.51031670  0.69979794     0.09900
C2272       C  0.88045569  0.48744950  0.66471721     0.35800
C2273       C  0.81075694  0.53257501  0.57206447     0.39300
C2274       C  0.82052915  0.49740257  0.71410214    -0.04300
C2275       C  0.81385110  0.49958863  0.75232470     0.02900
C2276       C  0.82837346  0.51180693  0.77822532    -0.03900
C2277       C  0.84887091  0.52319906  0.76427908    -0.00100
C2278       C  0.85378948  0.52352827  0.72502814    -0.02700
C2279       C  0.80723960  0.48213370  0.68908625     0.36600
C2280       C  0.86560780  0.53372266  0.79002072     0.40200
C2281       C  0.79078359  0.49123569  0.76358649     0.39300
C2282       C  0.87292035  0.53788902  0.71048995     0.36300
C2283       C  0.80697857  0.53479693  0.65152477     0.36900
C2284       C  0.88815346  0.49083151  0.58526021     0.40200
N2285       N  0.77189425  0.48494874  0.77083419    -0.37900
N2286       N  0.79683713  0.46988076  0.66902593    -0.39500
N2287       N  0.87968967  0.54189815  0.80965628    -0.37200
N2288       N  0.88807543  0.54947667  0.69884971    -0.39600
N2289       N  0.89387455  0.47739903  0.68367560    -0.39400
N2290       N  0.90575979  0.48338745  0.57337390    -0.37000
N2291       N  0.79488113  0.54073581  0.55587106    -0.38100
N2292       N  0.79086143  0.54402178  0.66549020    -0.39700
C2293       C  0.86318799  0.58857541  0.56450744    -0.04700
C2294       C  0.84287039  0.60088036  0.55198137     0.09500
C2295       C  0.82775585  0.59073100  0.52504429    -0.02000
C2296       C  0.83279882  0.56809735  0.51082474    -0.00300
C2297       C  0.85233710  0.55510977  0.52512160    -0.03900
C2298       C  0.86801863  0.56569854  0.55085567     0.03100
C2299       C  0.83741545  0.62486139  0.56653635     0.09900
C2300       C  0.80650427  0.60330322  0.51323769     0.35800
C2301       C  0.88960667  0.55352823  0.56190925     0.39300
C2302       C  0.84389465  0.64485214  0.54517930    -0.04300
C2303       C  0.83800088  0.66760076  0.55817204     0.02900
C2304       C  0.82512587  0.67029673  0.59219384    -0.03900
C2305       C  0.81829006  0.65020417  0.61317919    -0.00100
C2306       C  0.82468368  0.62750471  0.60051878    -0.02700
C2307       C  0.85649905  0.64190722  0.50971795     0.36600
C2308       C  0.80392492  0.65281410  0.64696971     0.40200
C2309       C  0.84582752  0.68818065  0.53705420     0.39300
C2310       C  0.81797614  0.60683795  0.62221597     0.36300
C2311       C  0.87893043  0.59943362  0.59162747     0.36900
C2312       C  0.81695904  0.55770603  0.48329129     0.40200
N2313       N  0.85213047  0.70454782  0.52020316    -0.37900
N2314       N  0.86642088  0.63947480  0.48135380    -0.39500
N2315       N  0.79234118  0.65486373  0.67376617    -0.37200
N2316       N  0.81266854  0.59043274  0.63978081    -0.39600
N2317       N  0.78949354  0.61339407  0.50436541    -0.39400
N2318       N  0.80393452  0.54952804  0.46186294    -0.37000
N2319       N  0.90704906  0.54407874  0.57040869    -0.38100
N2320       N  0.89143247  0.60810343  0.61335379    -0.39700
C2321       C  0.76290724  0.92667734  0.71204921    -0.04700
C2322       C  0.78067942  0.91934883  0.68668143     0.09500
C2323       C  0.79938670  0.93463101  0.67759121    -0.02000
C2324       C  0.80070153  0.95703036  0.69461605    -0.00300
C2325       C  0.78219129  0.96512121  0.71825781    -0.03900
C2326       C  0.76352974  0.94955928  0.72768065     0.03100
C2327       C  0.78103297  0.89467131  0.67214898     0.09900
C2328       C  0.81742315  0.92710604  0.65089472     0.35800
C2329       C  0.74481038  0.95700536  0.75318538     0.39300
C2330       C  0.76931723  0.88901275  0.63836452    -0.04300
C2331       C  0.77052371  0.86578575  0.62396830     0.02900
C2332       C  0.78377517  0.84797832  0.64337285    -0.03900
C2333       C  0.79576977  0.85413656  0.67731886    -0.00100
C2334       C  0.79400266  0.87723624  0.69177031    -0.02700
C2335       C  0.75599809  0.90724591  0.61847682     0.36600
C2336       C  0.81083402  0.83723468  0.69711266     0.40200
C2337       C  0.75786079  0.86055979  0.58933223     0.39300
C2338       C  0.80570715  0.88324066  0.72698025     0.36300
C2339       C  0.74403490  0.91056014  0.72200721     0.36900
C2340       C  0.82221522  0.97053512  0.69056561     0.40200
N2341       N  0.74785904  0.85659357  0.56154963    -0.37900
N2342       N  0.74537033  0.92181283  0.60271716    -0.39500
N2343       N  0.82287293  0.82387368  0.71303053    -0.37200
N2344       N  0.81495543  0.88805395  0.75506583    -0.39600
N2345       N  0.83164977  0.92109567  0.62935871    -0.39400
N2346       N  0.83993587  0.98046214  0.68757774    -0.37000
N2347       N  0.72988972  0.96283406  0.77363163    -0.38100
N2348       N  0.72903367  0.89762782  0.72986890    -0.39700
C2349       C  0.80715438  0.59577519  0.80744950    -0.04700
C2350       C  0.82181302  0.60823836  0.83277532     0.09500
C2351       C  0.83815303  0.59548937  0.85514852    -0.02000
C2352       C  0.83826760  0.57053152  0.85507724    -0.00300
C2353       C  0.82267386  0.55779473  0.83132684    -0.03900
C2354       C  0.80774989  0.57063793  0.80641734     0.03100
C2355       C  0.81922760  0.63459083  0.83838033     0.09900
C2356       C  0.85440177  0.60818210  0.87933744     0.35800
C2357       C  0.79188678  0.55812347  0.78150457     0.39300
C2358       C  0.80647925  0.64337726  0.86984831    -0.04300
C2359       C  0.80637930  0.66785241  0.87823859     0.02900
C2360       C  0.81941345  0.68380737  0.85567720    -0.03900
C2361       C  0.83187173  0.67504346  0.82382158    -0.00100
C2362       C  0.83143045  0.65062906  0.81489745    -0.02700
C2363       C  0.79382171  0.62703972  0.89407361     0.36600
C2364       C  0.84644574  0.69089431  0.80161089     0.40200
C2365       C  0.79267863  0.67665703  0.90997205     0.39300
C2366       C  0.84400591  0.64184952  0.78202103     0.36300
C2367       C  0.79072871  0.60884532  0.78370624     0.36900
C2368       C  0.85386554  0.55792794  0.88095106     0.40200
N2369       N  0.78167068  0.68372361  0.93518010    -0.37900
N2370       N  0.78382730  0.61390263  0.91336070    -0.39500
N2371       N  0.85826834  0.70351414  0.78418942    -0.37200
N2372       N  0.85387224  0.63480206  0.75563355    -0.39600
N2373       N  0.86740464  0.61836136  0.89846016    -0.39400
N2374       N  0.86630885  0.54791830  0.90158184    -0.37000
N2375       N  0.77916860  0.54838385  0.76132876    -0.38100
N2376       N  0.77761694  0.61933916  0.76480706    -0.39700
C2377       C  0.78063871  0.88469372  0.86613950    -0.04700
C2378       C  0.79021625  0.89127697  0.90129119     0.09500
C2379       C  0.79724093  0.87342474  0.92689821    -0.02000
C2380       C  0.79494539  0.84911555  0.91744035    -0.00300
C2381       C  0.78531301  0.84212404  0.88186253    -0.03900
C2382       C  0.77795455  0.86053418  0.85651205     0.03100
C2383       C  0.79459971  0.91712522  0.90947812     0.09900
C2384       C  0.80727038  0.88022628  0.96296877     0.35800
C2385       C  0.76720255  0.85516852  0.82031475     0.39300
C2386       C  0.77640654  0.93199117  0.92354166    -0.04300
C2387       C  0.77923119  0.95695180  0.92414249     0.02900
C2388       C  0.80038560  0.96730396  0.91072560    -0.03900
C2389       C  0.81908676  0.95208385  0.89881819    -0.00100
C2390       C  0.81628240  0.92726501  0.89876656    -0.02700
C2391       C  0.75436833  0.92157846  0.93592421     0.36600
C2392       C  0.84099604  0.96192295  0.88452064     0.40200
C2393       C  0.75947607  0.97183992  0.93529291     0.39300
C2394       C  0.83545180  0.91205828  0.88596293     0.36300
C2395       C  0.77389899  0.90307270  0.83932738     0.36900
C2396       C  0.80318274  0.83160868  0.94455245     0.40200
N2397       N  0.74339061  0.98334986  0.94411306    -0.37900
N2398       N  0.73678009  0.91327479  0.94588538    -0.39500
N2399       N  0.85841704  0.96973465  0.87288864    -0.37200
N2400       N  0.85073081  0.89986855  0.87589755    -0.39600
N2401       N  0.81529324  0.88572784  0.99168610    -0.39400
N2402       N  0.80983835  0.81789025  0.96654242    -0.37000
N2403       N  0.75864372  0.85118985  0.79132721    -0.38100
N2404       N  0.76865609  0.91779237  0.81804365    -0.39700
C2405       C  0.63798020  0.73501066  0.95909254    -0.04700
C2406       C  0.64118781  0.75716116  0.94147427     0.09500
C2407       C  0.62230624  0.77348975  0.93926641    -0.02000
C2408       C  0.60006794  0.76749396  0.95405009    -0.00300
C2409       C  0.59630900  0.74464587  0.96893951    -0.03900
C2410       C  0.61563107  0.72888174  0.97338828     0.03100
C2411       C  0.66462211  0.76330215  0.92541930     0.09900
C2412       C  0.62571019  0.79627892  0.92117332     0.35800
C2413       C  0.61258823  0.70636998  0.99253369     0.39300
C2414       C  0.67098857  0.75494538  0.88931127    -0.04300
C2415       C  0.69370721  0.75940942  0.87495076     0.02900
C2416       C  0.71006265  0.77231894  0.89673494    -0.03900
C2417       C  0.70340186  0.78131908  0.93239644    -0.00100
C2418       C  0.68067484  0.77676453  0.94677102    -0.02700
C2419       C  0.65434865  0.74112206  0.86752101     0.36600
C2420       C  0.71994157  0.79524990  0.95421499     0.40200
C2421       C  0.70068073  0.74949801  0.83875866     0.39300
C2422       C  0.67394123  0.78541352  0.98385498     0.36300
C2423       C  0.65759701  0.71837106  0.96169907     0.36900
C2424       C  0.58179100  0.78551104  0.95696172     0.40200
N2425       N  0.70627252  0.74151704  0.80998628    -0.37900
N2426       N  0.64109327  0.73001215  0.85027374    -0.39500
N2427       N  0.73315008  0.80639109  0.97152270    -0.37200
N2428       N  0.66853353  0.79232179  0.01340959    -0.39600
N2429       N  0.62841674  0.81438652  0.90650501    -0.39400
N2430       N  0.56773939  0.80036311  0.96018239    -0.37000
N2431       N  0.61019547  0.68844237  0.00791177    -0.38100
N2432       N  0.67323259  0.70507599  0.96353463    -0.39700
C2433       C  0.63508083  0.74165667  0.66653817    -0.04700
C2434       C  0.64539738  0.76174116  0.64963368     0.09500
C2435       C  0.63074773  0.78031753  0.63666834    -0.02000
C2436       C  0.60595480  0.77793905  0.63732271    -0.00300
C2437       C  0.59538960  0.75735952  0.65282771    -0.03900
C2438       C  0.61015480  0.73951759  0.66843100     0.03100
C2439       C  0.67158244  0.76282904  0.64271870     0.09900
C2440       C  0.64131810  0.80169013  0.62163357     0.35800
C2441       C  0.60001787  0.71808725  0.68375624     0.39300
C2442       C  0.68114177  0.75396434  0.60863070    -0.04300
C2443       C  0.70538764  0.75700204  0.60010876     0.02900
C2444       C  0.72038517  0.76877298  0.62587573    -0.03900
C2445       C  0.71079892  0.77703146  0.66054734    -0.00100
C2446       C  0.68650557  0.77421467  0.66870897    -0.02700
C2447       C  0.66578760  0.74204736  0.58203882     0.36600
C2448       C  0.72565812  0.78942156  0.68730443     0.40200
C2449       C  0.71488201  0.74762878  0.56506603     0.39300
C2450       C  0.67661599  0.78367371  0.70341164     0.36300
C2451       C  0.65021440  0.72278596  0.68065107     0.36900
C2452       C  0.59135944  0.79637514  0.62034268     0.40200
N2453       N  0.72231334  0.74009023  0.53704797    -0.37900
N2454       N  0.65339690  0.73258686  0.56100760    -0.39500
N2455       N  0.73750444  0.79927576  0.70867567    -0.37200
N2456       N  0.66865675  0.79131084  0.73098516    -0.39600
N2457       N  0.64981414  0.81878606  0.60997193    -0.39400
N2458       N  0.57975560  0.81099273  0.60656427    -0.37000
N2459       N  0.59248857  0.70073461  0.69613375    -0.38100
N2460       N  0.66231826  0.70771633  0.69184000    -0.39700
C2461       C  0.54497690  0.72647611  0.77029812    -0.04700
C2462       C  0.55463649  0.74508003  0.79173850     0.09500
C2463       C  0.56397632  0.76497649  0.77284794    -0.02000
C2464       C  0.56281074  0.76666944  0.73302557    -0.00300
C2465       C  0.55341669  0.74790414  0.71143124    -0.03900
C2466       C  0.54514718  0.72752124  0.73045060     0.03100
C2467       C  0.55498664  0.74357850  0.83420409     0.09900
C2468       C  0.57465976  0.78385249  0.79451631     0.35800
C2469       C  0.53811984  0.70688773  0.70922227     0.39300
C2470       C  0.56922012  0.72644773  0.85255290    -0.04300
C2471       C  0.56804113  0.72364559  0.89214570     0.02900
C2472       C  0.55413888  0.73922792  0.91437217    -0.03900
C2473       C  0.54075269  0.75714564  0.89598562    -0.00100
C2474       C  0.54056783  0.75876243  0.85610900    -0.02700
C2475       C  0.58495759  0.71148165  0.83049643     0.36600
C2476       C  0.52769155  0.77455115  0.91761540     0.40200
C2477       C  0.57985765  0.70355095  0.90943554     0.39300
C2478       C  0.52538831  0.77600891  0.83743246     0.36300
C2479       C  0.53475127  0.70618621  0.78933604     0.36900
C2480       C  0.56998729  0.78843715  0.71485260     0.40200
N2481       N  0.58902243  0.68696275  0.92211415    -0.37900
N2482       N  0.59744137  0.69957249  0.81275655    -0.39500
N2483       N  0.51727753  0.78913028  0.93357360    -0.37200
N2484       N  0.51344439  0.78977874  0.82225329    -0.39600
N2485       N  0.58306230  0.79893239  0.81187755    -0.39400
N2486       N  0.57547211  0.80628423  0.70150338    -0.37000
N2487       N  0.53293561  0.68989494  0.69318500    -0.38100
N2488       N  0.52669454  0.69000265  0.80461349    -0.39700
C2489       C  0.41304108  0.73712051  0.67887149    -0.04700
C2490       C  0.43077884  0.74777670  0.65679964     0.09500
C2491       C  0.42438815  0.76079392  0.62427729    -0.02000
C2492       C  0.40046362  0.76291371  0.61341108    -0.00300
C2493       C  0.38239390  0.75179624  0.63496288    -0.03900
C2494       C  0.38900280  0.73877046  0.66780170     0.03100
C2495       C  0.45654121  0.74374018  0.66500089     0.09900
C2496       C  0.44269158  0.77201697  0.60179056     0.35800
C2497       C  0.37134993  0.72607768  0.68944535     0.39300
C2498       C  0.46863894  0.72548110  0.64591676    -0.04300
C2499       C  0.49355438  0.72518390  0.64463670     0.02900
C2500       C  0.50674514  0.74358071  0.66169485    -0.03900
C2501       C  0.49453269  0.76078075  0.68348421    -0.00100
C2502       C  0.46951851  0.76044016  0.68582481    -0.02700
C2503       C  0.45528148  0.70799720  0.62508129     0.36600
C2504       C  0.50704280  0.78042993  0.70004654     0.40200
C2505       C  0.50549835  0.70666388  0.62340101     0.39300
C2506       C  0.45695581  0.77811484  0.70786723     0.36300
C2507       C  0.41963032  0.72447362  0.71303535     0.36900
C2508       C  0.39476247  0.77699836  0.58018429     0.40200
N2509       N  0.51494531  0.69189579  0.60638881    -0.37900
N2510       N  0.44452911  0.69421981  0.60830235    -0.39500
N2511       N  0.51622963  0.79659985  0.71338807    -0.37200
N2512       N  0.44693926  0.79209294  0.72572738    -0.39600
N2513       N  0.45736686  0.78092394  0.58405821    -0.39400
N2514       N  0.39039417  0.78813595  0.55353672    -0.37000
N2515       N  0.35736301  0.71578723  0.70667825    -0.38100
N2516       N  0.42490652  0.71456853  0.74047836    -0.39700
C2517       C  0.31690664  0.90586098  0.72587675    -0.04700
C2518       C  0.33437787  0.89873192  0.69974355     0.09500
C2519       C  0.35350158  0.91371459  0.69138597    -0.02000
C2520       C  0.35464094  0.93627176  0.70801913    -0.00300
C2521       C  0.33703875  0.94345954  0.73394990    -0.03900
C2522       C  0.31874923  0.92781516  0.74404999     0.03100
C2523       C  0.33284218  0.87499090  0.68204728     0.09900
C2524       C  0.37215062  0.90566046  0.66622665     0.35800
C2525       C  0.30142686  0.93473267  0.77234018     0.39300
C2526       C  0.32445314  0.87270660  0.64472039    -0.04300
C2527       C  0.32095670  0.85006921  0.62932628     0.02900
C2528       C  0.32572951  0.82971356  0.65144882    -0.03900
C2529       C  0.33513375  0.83209661  0.68824352    -0.00100
C2530       C  0.33872062  0.85471331  0.70344521    -0.02700
C2531       C  0.31914936  0.89366822  0.62240496     0.36600
C2532       C  0.34178495  0.81131731  0.71015481     0.40200
C2533       C  0.31174652  0.84780684  0.59122250     0.39300
C2534       C  0.34849023  0.85720254  0.74115216     0.36300
C2535       C  0.29679822  0.89075127  0.73334969     0.36900
C2536       C  0.37445930  0.95153193  0.69968856     0.40200
N2537       N  0.30447061  0.84604354  0.56079548    -0.37900
N2538       N  0.31509020  0.91036982  0.60447589    -0.39500
N2539       N  0.34721540  0.79482250  0.72767260    -0.37200
N2540       N  0.35630347  0.85920296  0.77118836    -0.39600
N2541       N  0.38704094  0.89909934  0.64629323    -0.39400
N2542       N  0.39052222  0.96336836  0.69287628    -0.37000
N2543       N  0.28769859  0.94072517  0.79470607    -0.38100
N2544       N  0.28073629  0.87867325  0.73898844    -0.39700
C2545       C  0.42034531  0.72028012  0.93399874    -0.04700
C2546       C  0.43881684  0.73468106  0.92089390     0.09500
C2547       C  0.43416810  0.75290133  0.89461674    -0.02000
C2548       C  0.41088779  0.75738128  0.88239611    -0.00300
C2549       C  0.39208278  0.74330133  0.89602512    -0.03900
C2550       C  0.39704774  0.72440570  0.92145958     0.03100
C2551       C  0.46297655  0.73203209  0.93699153     0.09900
C2552       C  0.45343682  0.76733540  0.88073334     0.35800
C2553       C  0.37842004  0.70870157  0.93415372     0.39300
C2554       C  0.47864564  0.71452539  0.92328157    -0.04300
C2555       C  0.50196317  0.71321679  0.93719506     0.02900
C2556       C  0.50973380  0.72981731  0.96411173    -0.03900
C2557       C  0.49368207  0.74678032  0.97877047    -0.00100
C2558       C  0.47037366  0.74785545  0.96520921    -0.02700
C2559       C  0.47083212  0.69817003  0.89444453     0.36600
C2560       C  0.50150868  0.76438302  0.00571315     0.40200
C2561       C  0.51761882  0.69441155  0.92455380     0.39300
C2562       C  0.45412784  0.76579534  0.97936004     0.36300
C2563       C  0.42536464  0.70132789  0.96067273     0.36900
C2564       C  0.40638552  0.77703753  0.85681405     0.40200
N2565       N  0.52976496  0.67912306  0.91440822    -0.37900
N2566       N  0.46457207  0.68513183  0.87143401    -0.39500
N2567       N  0.50761870  0.77893416  0.02637452    -0.37200
N2568       N  0.44119851  0.78017173  0.99041211    -0.39600
N2569       N  0.46883163  0.77886180  0.86983643    -0.39400
N2570       N  0.40288997  0.79269776  0.83635480    -0.37000
N2571       N  0.36359062  0.69619260  0.94433712    -0.38100
N2572       N  0.42940423  0.68617534  0.98184096    -0.39700
C2573       C  0.31021425  0.86077549  0.87104233    -0.04700
C2574       C  0.31815908  0.86804814  0.90703863     0.09500
C2575       C  0.32654444  0.85072052  0.93261579    -0.02000
C2576       C  0.32738009  0.82652021  0.92209459    -0.00300
C2577       C  0.32031247  0.81929671  0.88532200    -0.03900
C2578       C  0.31179596  0.83676516  0.85984973     0.03100
C2579       C  0.31921388  0.89414372  0.91655365     0.09900
C2580       C  0.33469845  0.85789487  0.96968127     0.35800
C2581       C  0.30429953  0.83014151  0.82213947     0.39300
C2582       C  0.30206328  0.90504226  0.94009489    -0.04300
C2583       C  0.30141546  0.93006252  0.94439353     0.02900
C2584       C  0.31840740  0.94437194  0.92617453    -0.03900
C2585       C  0.33672672  0.93309375  0.90528137    -0.00100
C2586       C  0.33689524  0.90832011  0.90004066    -0.02700
C2587       C  0.28442360  0.89054654  0.95850379     0.36600
C2588       C  0.35523995  0.94718222  0.88808486     0.40200
C2589       C  0.28222443  0.94106818  0.96518860     0.39300
C2590       C  0.35477394  0.89746465  0.87611814     0.36300
C2591       C  0.29979663  0.87808570  0.84574007     0.36900
C2592       C  0.33659380  0.80927186  0.94886044     0.40200
N2593       N  0.26673292  0.94964649  0.98173454    -0.37900
N2594       N  0.27045872  0.87889368  0.97336611    -0.39500
N2595       N  0.37013977  0.95843449  0.87484477    -0.37200
N2596       N  0.36887661  0.88882914  0.85673204    -0.39600
N2597       N  0.34113742  0.86362884  0.99929136    -0.39400
N2598       N  0.34395388  0.79561556  0.97037073    -0.37000
N2599       N  0.29845379  0.82499320  0.79193309    -0.38100
N2600       N  0.29108734  0.89185834  0.82584469    -0.39700
C2601       C  0.13451102  0.71113497  0.59854545    -0.04700
C2602       C  0.14686431  0.73200804  0.58975186     0.09500
C2603       C  0.13413368  0.75230394  0.57790561    -0.02000
C2604       C  0.10909947  0.75213018  0.57687590    -0.00300
C2605       C  0.09660729  0.73145378  0.58698728    -0.03900
C2606       C  0.10958654  0.71096109  0.59794063     0.03100
C2607       C  0.17300950  0.73315895  0.59719618     0.09900
C2608       C  0.14682044  0.77381302  0.56897352     0.35800
C2609       C  0.09734458  0.69010215  0.61150923     0.39300
C2610       C  0.18940305  0.73201344  0.56732114    -0.04300
C2611       C  0.21400806  0.73113335  0.57479424     0.02900
C2612       C  0.22259185  0.73104680  0.61272902    -0.03900
C2613       C  0.20576447  0.73375351  0.64252056    -0.00100
C2614       C  0.18127219  0.73458298  0.63467718    -0.02700
C2615       C  0.18072790  0.73113363  0.52875901     0.36600
C2616       C  0.21326412  0.73619348  0.68156295     0.40200
C2617       C  0.23004668  0.73004371  0.54286547     0.39300
C2618       C  0.16430281  0.73654514  0.66539457     0.36300
C2619       C  0.14752836  0.69011719  0.61027326     0.36900
C2620       C  0.09640379  0.77410034  0.57010173     0.40200
N2621       N  0.24236604  0.72951611  0.51674726    -0.37900
N2622       N  0.17352095  0.73047432  0.49818073    -0.39500
N2623       N  0.21898523  0.73815876  0.71279928    -0.37200
N2624       N  0.15060593  0.73794455  0.68962088    -0.39600
N2625       N  0.15701021  0.79092598  0.56178219    -0.39400
N2626       N  0.08674892  0.79199368  0.56540151    -0.37000
N2627       N  0.08762831  0.67353084  0.62264144    -0.38100
N2628       N  0.15792562  0.67342436  0.61983534    -0.39700
C2629       C  0.96908455  0.72833716  0.55998466    -0.04700
C2630       C  0.95713186  0.74570049  0.58160375     0.09500
C2631       C  0.97038748  0.76275666  0.60113339    -0.02000
C2632       C  0.99532159  0.76169627  0.60089849    -0.00300
C2633       C  0.00746352  0.74329585  0.58149676    -0.03900
C2634       C  0.99416060  0.72707543  0.55996865     0.03100
C2635       C  0.93092511  0.74412653  0.58873997     0.09900
C2636       C  0.95826035  0.78031501  0.62407641     0.35800
C2637       C  0.00592214  0.70776800  0.54056126     0.39300
C2638       C  0.92274439  0.72993568  0.61873057    -0.04300
C2639       C  0.89859665  0.73022085  0.62905783     0.02900
C2640       C  0.88189291  0.74423586  0.60849277    -0.03900
C2641       C  0.89018588  0.75780538  0.57736464    -0.00100
C2642       C  0.91459927  0.75800069  0.56804064    -0.02700
C2643       C  0.93943228  0.71481270  0.63882290     0.36600
C2644       C  0.87382632  0.77204500  0.55521133     0.40200
C2645       C  0.89118735  0.71548465  0.66054511     0.39300
C2646       C  0.92307849  0.77263014  0.53724405     0.36300
C2647       C  0.95546362  0.71071518  0.54000761     0.36900
C2648       C  0.00848263  0.77884679  0.62278274     0.40200
N2649       N  0.88544778  0.70385210  0.68587825    -0.37900
N2650       N  0.95292764  0.70267239  0.65422011    -0.39500
N2651       N  0.86079352  0.78331293  0.53731714    -0.37200
N2652       N  0.92993596  0.78432553  0.51273589    -0.39600
N2653       N  0.94853724  0.79414556  0.64261897    -0.39400
N2654       N  0.01895438  0.79252424  0.64022021    -0.37000
N2655       N  0.01482307  0.69211113  0.52489878    -0.38100
N2656       N  0.94457298  0.69657468  0.52426013    -0.39700
C2657       C  0.13864984  0.74728114  0.78353014    -0.04700
C2658       C  0.14239234  0.72604485  0.80362910     0.09500
C2659       C  0.12350568  0.71040561  0.80964363    -0.02000
C2660       C  0.10073446  0.71615755  0.79591553    -0.00300
C2661       C  0.09656034  0.73811149  0.77760173    -0.03900
C2662       C  0.11589932  0.75330983  0.77043567     0.03100
C2663       C  0.16634062  0.72095791  0.81931281     0.09900
C2664       C  0.12756924  0.68843074  0.82999638     0.35800
C2665       C  0.11253401  0.77548631  0.75028181     0.39300
C2666       C  0.17285715  0.73121603  0.85401235    -0.04300
C2667       C  0.19662873  0.73070341  0.86557169     0.02900
C2668       C  0.21394030  0.71993993  0.84240826    -0.03900
C2669       C  0.20729423  0.70854227  0.80871415    -0.00100
C2670       C  0.18341944  0.70897114  0.79721517    -0.02700
C2671       C  0.15523233  0.74329352  0.87689223     0.36600
C2672       C  0.22503744  0.69659542  0.78590858     0.40200
C2673       C  0.20352165  0.74244487  0.90028845     0.39300
C2674       C  0.17648547  0.69775378  0.76217744     0.36300
C2675       C  0.15835752  0.76308858  0.77680767     0.36900
C2676       C  0.08223545  0.69864540  0.79829276     0.40200
N2677       N  0.20914731  0.75185593  0.92782770    -0.37900
N2678       N  0.14120038  0.75299397  0.89508939    -0.39500
N2679       N  0.23923389  0.68705954  0.76779669    -0.37200
N2680       N  0.17093724  0.68872063  0.73427988    -0.39600
N2681       N  0.13078233  0.67091352  0.84629788    -0.39400
N2682       N  0.06800774  0.68408049  0.79993479    -0.37000
N2683       N  0.11004237  0.79319365  0.73419889    -0.38100
N2684       N  0.17419768  0.77552897  0.77161486    -0.39700
C2685       C  0.97815820  0.77273292  0.81431233    -0.04700
C2686       C  0.96151620  0.75788138  0.79689455     0.09500
C2687       C  0.96842990  0.74329263  0.76664788    -0.02000
C2688       C  0.99231636  0.74215104  0.75563671    -0.00300
C2689       C  0.00936830  0.75623596  0.77419424    -0.03900
C2690       C  0.00194879  0.77232652  0.80240093     0.03100
C2691       C  0.93680405  0.75683686  0.81139829     0.09900
C2692       C  0.95086123  0.72904215  0.74761041     0.35800
C2693       C  0.01838459  0.78912825  0.81826066     0.39300
C2694       C  0.92045345  0.77489897  0.80225339    -0.04300
C2695       C  0.89732377  0.77419205  0.81693760     0.02900
C2696       C  0.89029839  0.75505292  0.84017298    -0.03900
C2697       C  0.90661644  0.73667306  0.84856623    -0.00100
C2698       C  0.92978942  0.73757388  0.83413576    -0.02700
C2699       C  0.92739716  0.79399842  0.77720475     0.36600
C2700       C  0.89946346  0.71647250  0.87119601     0.40200
C2701       C  0.88106504  0.79360821  0.80911527     0.39300
C2702       C  0.94634536  0.71842270  0.84202785     0.36300
C2703       C  0.97073172  0.78828862  0.84471033     0.36900
C2704       C  0.99939411  0.72505796  0.72721782     0.40200
N2705       N  0.86810527  0.80910713  0.80298701    -0.37900
N2706       N  0.93294699  0.80915707  0.75708733    -0.39500
N2707       N  0.89376664  0.70041305  0.88932748    -0.37200
N2708       N  0.95945901  0.70302715  0.84794517    -0.39600
N2709       N  0.93656367  0.71778959  0.73293562    -0.39400
N2710       N  0.00466094  0.71086276  0.70520910    -0.37000
N2711       N  0.03102369  0.80295929  0.83107234    -0.38100
N2712       N  0.96465790  0.80070040  0.86885798    -0.39700
C2713       C  0.03422535  0.72358691  0.88330875    -0.04700
C2714       C  0.04882556  0.73705049  0.90717483     0.09500
C2715       C  0.06478590  0.75330878  0.89134488    -0.02000
C2716       C  0.06542993  0.75693665  0.85198596    -0.00300
C2717       C  0.05134587  0.74305651  0.82768437    -0.03900
C2718       C  0.03589635  0.72613162  0.84368075     0.03100
C2719       C  0.05485412  0.74279196  0.44943171     0.09900
C2720       C  0.08074313  0.76617251  0.91581596     0.35800
C2721       C  0.02242469  0.71053037  0.81967019     0.39300
C2722       C  0.06529886  0.72323566  0.46804660    -0.04300
C2723       C  0.06375883  0.72107067  0.50770230     0.02900
C2724       C  0.05396228  0.73960346  0.52971778    -0.03900
C2725       C  0.04515551  0.76002734  0.51109217    -0.00100
C2726       C  0.04477345  0.76121828  0.47117847    -0.02700
C2727       C  0.07737233  0.70508899  0.44617080     0.36600
C2728       C  0.03704916  0.78021046  0.53270849     0.40200
C2729       C  0.07018587  0.69869743  0.52496046     0.39300
C2730       C  0.03364973  0.78128653  0.45245979     0.36300
C2731       C  0.01759316  0.70700604  0.89961958     0.36900
C2732       C  0.07953583  0.77607071  0.83703645     0.40200
N2733       N  0.07482577  0.68021300  0.53710829    -0.37900
N2734       N  0.08702840  0.69070171  0.42863457    -0.39500
N2735       N  0.03082665  0.79682717  0.54907001    -0.37200
N2736       N  0.02483853  0.79731503  0.43748808    -0.39600
N2737       N  0.09347995  0.77619654  0.93560043    -0.39400
N2738       N  0.09062962  0.79180046  0.82615359    -0.37000
N2739       N  0.01173359  0.69752685  0.80128587    -0.38100
N2740       N  0.00434195  0.69376408  0.91262480    -0.39700
C2741       C  0.29846889  0.41028083  0.89140417    -0.04700
C2742       C  0.31362852  0.39572485  0.86965546     0.09500
C2743       C  0.32890360  0.40652725  0.84302643    -0.02000
C2744       C  0.33001577  0.43160885  0.83990805    -0.00300
C2745       C  0.31569670  0.44614131  0.86312433    -0.03900
C2746       C  0.29936669  0.43516774  0.88797604     0.03100
C2747       C  0.31396838  0.36920715  0.87645551     0.09900
C2748       C  0.34424632  0.39181887  0.82001162     0.35800
C2749       C  0.28356463  0.44969122  0.91068242     0.39300
C2750       C  0.30272712  0.35359788  0.85116242    -0.04300
C2751       C  0.30078331  0.32915388  0.85992185     0.02900
C2752       C  0.30989609  0.31995395  0.89437923    -0.03900
C2753       C  0.32200204  0.33547895  0.91893537    -0.00100
C2754       C  0.32413513  0.35983220  0.90989457    -0.02700
C2755       C  0.29263031  0.36284486  0.81642356     0.36600
C2756       C  0.33274058  0.32633981  0.95329159     0.40200
C2757       C  0.28839693  0.31370258  0.83408073     0.39300
C2758       C  0.33684652  0.37542612  0.93507794     0.36300
C2759       C  0.28243676  0.39963404  0.91850868     0.36900
C2760       C  0.34684885  0.44240054  0.81439819     0.40200
N2761       N  0.27853809  0.30135768  0.81345830    -0.37900
N2762       N  0.28469705  0.37024665  0.78861119    -0.39500
N2763       N  0.34136316  0.31905349  0.98066169    -0.37200
N2764       N  0.34702804  0.38801140  0.95489007    -0.39600
N2765       N  0.35643532  0.38003836  0.80155517    -0.39400
N2766       N  0.36031263  0.45094375  0.79394428    -0.37000
N2767       N  0.27096396  0.46148468  0.92839166    -0.38100
N2768       N  0.26980356  0.39118596  0.94038338    -0.39700
C2769       C  0.30702145  0.62193943  0.89332844    -0.04700
C2770       C  0.30844306  0.61238464  0.85667261     0.09500
C2771       C  0.30745736  0.62776314  0.82529757    -0.02000
C2772       C  0.30326012  0.65235773  0.83029340    -0.00300
C2773       C  0.30073259  0.66210264  0.86727504    -0.03900
C2774       C  0.30457508  0.64659045  0.89868652     0.03100
C2775       C  0.31270211  0.58619946  0.85178703     0.09900
C2776       C  0.31118385  0.61813905  0.78779366     0.35800
C2777       C  0.30767977  0.65565500  0.93669941     0.39300
C2778       C  0.29386080  0.57084972  0.84325840    -0.04300
C2779       C  0.29707826  0.54595778  0.84532553     0.02900
C2780       C  0.31942036  0.53614974  0.85491240    -0.03900
C2781       C  0.33852760  0.55176122  0.86172484    -0.00100
C2782       C  0.33519748  0.57652065  0.85981959    -0.02700
C2783       C  0.27080437  0.58076611  0.83425047     0.36600
C2784       C  0.36151204  0.54248955  0.87287003     0.40200
C2785       C  0.27669771  0.53077299  0.84175841     0.39300
C2786       C  0.35473523  0.59222345  0.86793514     0.36300
C2787       C  0.30811267  0.60619864  0.92584161     0.36900
C2788       C  0.30245779  0.66736477  0.79698984     0.40200
N2789       N  0.26007123  0.51906943  0.83941497    -0.37900
N2790       N  0.25244757  0.58873058  0.82690155    -0.39500
N2791       N  0.37985603  0.53521824  0.88191844    -0.37200
N2792       N  0.37019729  0.60483913  0.87459095    -0.39600
N2793       N  0.31435150  0.61026578  0.75804889    -0.39400
N2794       N  0.30204200  0.67911421  0.77013582    -0.37000
N2795       N  0.31075119  0.66270854  0.96696344    -0.38100
N2796       N  0.30887434  0.59357550  0.95163551    -0.39700
C2797       C  0.25638797  0.57042721  0.55750415    -0.04700
C2798       C  0.27915955  0.57984653  0.56313889     0.09500
C2799       C  0.29935183  0.56524304  0.55888975    -0.02000
C2800       C  0.29673695  0.54093744  0.55208007    -0.00300
C2801       C  0.27395084  0.53132033  0.54836068    -0.03900
C2802       C  0.25389044  0.54637323  0.54852045     0.03100
C2803       C  0.28202625  0.60496076  0.57467336     0.09900
C2804       C  0.32283425  0.57532202  0.56136981     0.35800
C2805       C  0.23071668  0.53721041  0.53913042     0.39300
C2806       C  0.29073135  0.61011944  0.61105079    -0.04300
C2807       C  0.29472662  0.63368490  0.62157101     0.02900
C2808       C  0.28784612  0.65244180  0.59721484    -0.03900
C2809       C  0.27872102  0.64718164  0.56091595    -0.00100
C2810       C  0.27662276  0.62350231  0.54926359    -0.02700
C2811       C  0.29540557  0.59110646  0.63783925     0.36600
C2812       C  0.27062857  0.66587536  0.53578802     0.40200
C2813       C  0.30694313  0.63845861  0.65678704     0.39300
C2814       C  0.26870502  0.61821818  0.51119110     0.36300
C2815       C  0.23553016  0.58536132  0.56142913     0.36900
C2816       C  0.31755066  0.52623650  0.54634903     0.40200
N2817       N  0.31694251  0.64232209  0.68459472    -0.37900
N2818       N  0.29908059  0.57589876  0.65907804    -0.39500
N2819       N  0.26403675  0.68051465  0.51534989    -0.37200
N2820       N  0.26223481  0.61408286  0.48091228    -0.39600
N2821       N  0.34152975  0.58339697  0.56347389    -0.39400
N2822       N  0.33438767  0.51493133  0.54119835    -0.37000
N2823       N  0.21224509  0.52991980  0.53157386    -0.38100
N2824       N  0.21888901  0.59727953  0.56434857    -0.39700
C2825       C  0.26645879  0.41179075  0.60424116    -0.04700
C2826       C  0.28408924  0.39753837  0.58768703     0.09500
C2827       C  0.29749986  0.40584158  0.55708483    -0.02000
C2828       C  0.29350051  0.42874760  0.54312793    -0.00300
C2829       C  0.27642249  0.44356887  0.56057876    -0.03900
C2830       C  0.26235976  0.43473836  0.59033014     0.03100
C2831       C  0.28868682  0.37353863  0.60244552     0.09900
C2832       C  0.31568182  0.39074336  0.54072029     0.35800
C2833       C  0.24257511  0.44836976  0.60486361     0.39300
C2834       C  0.27758893  0.35402593  0.58554924    -0.04300
C2835       C  0.28253289  0.33115138  0.59889668     0.02900
C2836       C  0.29868301  0.32797813  0.62889447    -0.03900
C2837       C  0.30981221  0.34750657  0.64570902    -0.00100
C2838       C  0.30486648  0.37036891  0.63230063    -0.02700
C2839       C  0.26117277  0.35756376  0.55446940     0.36600
C2840       C  0.32654924  0.34401806  0.67634891     0.40200
C2841       C  0.27045126  0.31100412  0.58264027     0.39300
C2842       C  0.31653000  0.39065343  0.64878300     0.36300
C2843       C  0.25251686  0.40266747  0.63541389     0.36900
C2844       C  0.30736823  0.43698846  0.51133329     0.40200
N2845       N  0.26073287  0.29500062  0.56972109    -0.37900
N2846       N  0.24812667  0.36038159  0.52963456    -0.39500
N2847       N  0.33989544  0.34123091  0.70078055    -0.37200
N2848       N  0.32579719  0.40689857  0.66175922    -0.39600
N2849       N  0.33012283  0.37829123  0.52859034    -0.39400
N2850       N  0.31885015  0.44312673  0.48615740    -0.37000
N2851       N  0.22633200  0.45854782  0.61656390    -0.38100
N2852       N  0.24149133  0.39529743  0.66030924    -0.39700
C2853       C  0.31135045  0.48066040  0.65700604    -0.04700
C2854       C  0.29623584  0.49170293  0.68355692     0.09500
C2855       C  0.27517696  0.50261069  0.67069222    -0.02000
C2856       C  0.26850289  0.50110055  0.63227664    -0.00300
C2857       C  0.28363198  0.49019342  0.60544635    -0.03900
C2858       C  0.30543227  0.48051665  0.61812942     0.03100
C2859       C  0.30197642  0.49112036  0.72522375     0.09900
C2860       C  0.26014575  0.51521003  0.69728021     0.35800
C2861       C  0.32221589  0.47079186  0.59137308     0.39300
C2862       C  0.32139446  0.50374278  0.73961587    -0.04300
C2863       C  0.32744681  0.50197351  0.77828355     0.02900
C2864       C  0.31237980  0.49024484  0.80422875    -0.03900
C2865       C  0.29229508  0.47846451  0.78985718    -0.00100
C2866       C  0.28793152  0.47783833  0.75048377    -0.02700
C2867       C  0.33498202  0.51889402  0.71468921     0.36600
C2868       C  0.27518844  0.46802832  0.81516773     0.40200
C2869       C  0.35016785  0.51074559  0.79041354     0.39300
C2870       C  0.26892536  0.46341421  0.73581258     0.36300
C2871       C  0.33290288  0.46907316  0.66983768     0.36900
C2872       C  0.24507798  0.50904094  0.62153617     0.40200
N2873       N  0.36875880  0.51738359  0.79866218    -0.37900
N2874       N  0.34567175  0.53113502  0.69485279    -0.39500
N2875       N  0.26076432  0.45983592  0.83424521    -0.37200
N2876       N  0.25386585  0.45186245  0.72392033    -0.39600
N2877       N  0.24819080  0.52524019  0.71853438    -0.39400
N2878       N  0.22589165  0.51493924  0.61482969    -0.37000
N2879       N  0.33627698  0.46314184  0.57090634    -0.38100
N2880       N  0.35010905  0.45990844  0.68017567    -0.39700
loop_ 
_geom_bond_atom_site_label_1 
_geom_bond_atom_site_label_2 
_geom_bond_distance 
_geom_bond_site_symmetry_2 
_ccdc_geom_bond_type 
N1            C5   1.358       .  A
N1            C2   1.355       .  A
N1         C1417   1.449       .  S
C2            C3   1.381       .  A
C2         C1389   1.486       .  S
C3            C4   1.379       .  A
C3            H6   1.082   1_554  S
C4            C5   1.382       .  A
C4            H7   1.082   1_554  S
C5         C1361   1.485       .  S
N8           C12   1.371       .  A
N8            C9   1.370       .  A
N8         C1424   1.452       .  S
C9           C10   1.379       .  A
C9         C1340   1.503       .  S
C10          C11   1.367       .  A
C10          H13   1.082       .  S
C11          C12   1.381       .  A
C11          H14   1.077       .  S
C12        C1305   1.505       .  S
N15          C19   1.356       .  A
N15          C16   1.355       .  A
N15        C1277   1.455       .  S
C16          C17   1.379       .  A
C16        C1221   1.474       .  S
C17          C18   1.371       .  A
C17          H20   1.081       .  S
C18          C19   1.382       .  A
C18          H21   1.079       .  S
C19        C1249   1.476       .  S
N22          C26   1.366       .  A
N22          C23   1.371       .  A
N22        C1284   1.452       .  S
C23          C24   1.382       .  A
C23        C1165   1.506       .  S
C24          C25   1.368       .  A
C24          H27   1.081       .  S
C25          C26   1.379       .  A
C25          H28   1.080       .  S
C26        C1193   1.498       .  S
O29         Ni35   1.932       .  S
O29          C50   1.274       .  A
O30         Ni53   1.892       .  S
O30          C39   1.265       .  A
O31         Ni35   1.911       .  S
O31         Ni53   1.893       .  S
O31         Ni47   1.897       .  S
O31          H54   0.966       .  S
C32        C1228   1.478       .  S
C32          O49   1.267       .  A
C32          O41   1.272       .  A
O33         Ni52   1.927       .  S
O33          C39   1.270       .  A
O34         Ni52   1.908       .  S
O34          C36   1.270       .  A
Ni35         O38   1.919       .  S
Ni35         O40   1.927       .  S
C36        C1333   1.521       .  S
C36          O46   1.277       .  A
O37         Ni53   1.909       .  S
O37          C43   1.276       .  A
O38          C43   1.277       .  A
C39        C1505   1.461       .  S
O40          C42   1.272       .  A
O41         Ni52   1.921       .  S
C42        C1137   1.507       .  S
C42          O48   1.272       .  A
C43        C1109   1.478       .  S
H44          O45   0.966       .  S
O45         Ni53   1.915       .  S
O45         Ni47   1.908       .  S
O45         Ni52   1.922       .  S
O46         Ni47   1.952       .  S
Ni47         O51   1.889       .  S
Ni47         O49   1.895       .  S
O48         Ni53   1.934       .  S
C50          C76   1.460       .  S
C50          O51   1.263       .  A
O55         Ni61   1.931       .  S
O55          C76   1.272       .  A
O56         Ni79   1.880       .  S
O56          C65   1.262       .  A
O57         Ni61   1.921       .  S
O57         Ni79   1.902       .  S
O57         Ni73   1.910       .  S
O57          H80   0.965       .  S
C58        C1088   1.477       .  S
C58          O75   1.270       .  A
C58          O67   1.274       .  A
O59         Ni78   1.932       .  S
O59          C65   1.271       .  A
O60         Ni78   1.908       .  S
O60          C62   1.270       .  A
Ni61         O64   1.927       .  S
Ni61         O66   1.917       .  S
C62        C1053   1.495       .  S
C62          O72   1.273       .  A
O63         Ni79   1.916       .  S
O63          C69   1.272       .  A
O64          C69   1.276       .  A
C65        C1479   1.458   1_554  S
O66          C68   1.271       .  A
O67         Ni78   1.926       .  S
C68        C1172   1.513       .  S
C68          O74   1.274       .  A
C69        C1368   1.496       .  S
H70          O71   0.966       .  S
O71         Ni79   1.910       .  S
O71         Ni73   1.907       .  S
O71         Ni78   1.923       .  S
O72         Ni73   1.938       .  S
Ni73         O77   1.890       .  S
Ni73         O75   1.900       .  S
O74         Ni79   1.941       .  S
C76          O77   1.261       .  A
N81          C85   1.371       .  A
N81          C82   1.369       .  A
N81        C1025   1.457       .  S
C82          C83   1.379       .  A
C82        C1060   1.499       .  S
C83          C84   1.363       .  A
C83          H86   1.079       .  S
C84          C85   1.380       .  A
C84          H87   1.081       .  S
C85         C997   1.499       .  S
N88          C92   1.360       .  A
N88          C89   1.358       .  A
N88        C1032   1.456       .  S
C89          C90   1.383       .  A
C89        C1116   1.481       .  S
C90          C91   1.372       .  A
C90          H93   1.082       .  S
C91          C92   1.381       .  A
C91          H94   1.082       .  S
C92         C969   1.481       .  S
O95        Ni101   1.928       .  S
O95         C116   1.270       .  A
O96        Ni119   1.895       .  S
O96         C105   1.267       .  A
O97        Ni101   1.919       .  S
O97        Ni119   1.906       .  S
O97        Ni113   1.898       .  S
O97         H120   0.966       .  S
C98         C976   1.471       .  S
C98         O115   1.265       .  A
C98         O107   1.273       .  A
O99        Ni118   1.928       .  S
O99         C105   1.271       .  A
O100       Ni118   1.911       .  S
O100        C102   1.269       .  A
Ni101       O104   1.910       .  S
Ni101       O106   1.918       .  S
C102        C941   1.519       .  S
C102        O112   1.279       .  A
O103       Ni119   1.901       .  S
O103        C109   1.272       .  A
O104        C109   1.274       .  A
C105        C131   1.463       .  S
O106        C108   1.271       .  A
O107       Ni118   1.932       .  S
C108        C920   1.504       .  S
C108        O114   1.276       .  A
C109       C1256   1.471       .  S
H110        O111   0.966       .  S
O111       Ni119   1.911       .  S
O111       Ni113   1.909       .  S
O111       Ni118   1.921       .  S
O112       Ni113   1.960       .  S
Ni113       O117   1.895       .  S
Ni113       O115   1.885       .  S
O114       Ni119   1.946       .  S
C116       C1582   1.462       .  S
C116        O117   1.264       .  A
O121       Ni127   1.919       .  S
O121        C142   1.269       .  A
O122       Ni145   1.899       .  S
O122        C131   1.267       .  A
O123       Ni127   1.912       .  S
O123       Ni145   1.902       .  S
O123       Ni139   1.913       .  S
O123        H146   0.966       .  S
C124        C864   1.471       .  S
C124        O141   1.275       .  A
C124        O133   1.275       .  A
O125       Ni144   1.927       .  S
O125        C131   1.270       .  A
O126       Ni144   1.908       .  S
O126        C128   1.269       .  A
Ni127       O130   1.918       .  S
Ni127       O132   1.919       .  S
C128       C1200   1.502       .  S
C128        O138   1.273       .  A
O129       Ni145   1.908       .  S
O129        C135   1.273       .  A
O130        C135   1.275       .  A
O132        C134   1.270       .  A
O133       Ni144   1.920       .  S
C134       C1004   1.495       .  S
C134        O140   1.274       .  A
C135        C892   1.491       .  S
H136        O137   0.966       .  S
O137       Ni145   1.905       .  S
O137       Ni139   1.904       .  S
O137       Ni144   1.908       .  S
O138       Ni139   1.940       .  S
Ni139       O143   1.904       .  S
Ni139       O141   1.905       .  S
O140       Ni145   1.933       .  S
C142       C1556   1.461   1_554  S
C142        O143   1.267       .  A
N147        C151   1.358       .  A
N147        C148   1.358       .  A
N147        C829   1.454       .  S
C148        C149   1.381   1_554  A
C148        C857   1.482       .  S
C149        C150   1.373       .  A
C149        H152   1.080       .  S
C150        C151   1.382   1_556  A
C150        H153   1.081       .  S
C151        C808   1.482       .  S
N154        C158   1.374       .  A
N154        C155   1.373       .  A
N154        C836   1.451       .  S
C155        C156   1.380       .  A
C155        C913   1.512       .  S
C156        C157   1.367       .  A
C156        H159   1.079       .  S
C157        C158   1.383       .  A
C157        H160   1.082       .  S
C158        C773   1.514       .  S
N161        C165   1.372       .  A
N161        C162   1.374   1_545  A
N161        C752   1.455       .  S
C162        C163   1.381       .  A
C162        C948   1.507       .  S
C163        C164   1.363   1_565  A
C163        H166   1.081       .  S
C164        C165   1.378       .  A
C164        H167   1.080       .  S
C165        C717   1.503       .  S
N168        C172   1.356       .  A
N168        C169   1.356   1_545  A
N168        C745   1.451       .  S
C169        C170   1.382       .  A
C169        C885   1.484       .  S
C170        C171   1.376   1_565  A
C170        H173   1.081       .  S
C171        C172   1.381       .  A
C171        H174   1.081       .  S
C172        C696   1.480       .  S
O175       Ni181   1.926       .  S
O175        C196   1.271       .  A
O176       Ni199   1.889       .  S
O176        C185   1.263       .  A
O177       Ni181   1.914       .  S
O177       Ni199   1.900       .  S
O177       Ni193   1.900       .  S
O177        H200   0.966       .  S
C178        C661   1.470       .  S
C178        O195   1.267       .  A
C178        O187   1.275       .  A
O179       Ni198   1.932       .  S
O179        C185   1.273       .  A
O180       Ni198   1.913       .  S
O180        C182   1.271       .  A
Ni181       O184   1.916       .  S
Ni181       O186   1.925       .  S
C182        C780   1.513       .  S
C182        O192   1.278       .  A
O183       Ni199   1.905       .  S
O183        C189   1.273       .  A
O184        C189   1.275       .  A
C185       C1651   1.461       .  S
O186        C188   1.272       .  A
O187       Ni198   1.928       .  S
C188        C724   1.501       .  S
C188        O194   1.270       .  A
C189        C633   1.485       .  S
H190        O191   0.966       .  S
O191       Ni199   1.906       .  S
O191       Ni193   1.907       .  S
O191       Ni198   1.913       .  S
O192       Ni193   1.956       .  S
Ni193       O197   1.897       .  S
Ni193       O195   1.889       .  S
O194       Ni199   1.928       .  S
C196        C222   1.461       .  S
C196        O197   1.265       .  A
O201       Ni207   1.920       .  S
O201        C222   1.270       .  A
O202       Ni225   1.895       .  S
O202        C211   1.266       .  A
O203       Ni207   1.908       .  S
O203       Ni225   1.896       .  S
O203       Ni219   1.900       .  S
O203        H226   0.965       .  S
C204        C689   1.463       .  S
C204        O221   1.269       .  A
C204        O213   1.276       .  A
O205       Ni224   1.943       .  S
O205        C211   1.276       .  A
O206       Ni224   1.919       .  S
O206        C208   1.273       .  A
Ni207       O210   1.914       .  S
Ni207       O212   1.923       .  S
C208        C577   1.504       .  S
C208        O218   1.275       .  A
O209       Ni225   1.904       .  S
O209        C215   1.274       .  A
O210        C215   1.275       .  A
C211       C1625   1.471   1_554  S
O212        C214   1.271       .  A
O213       Ni224   1.932       .  S
C214        C612   1.499       .  S
C214        O220   1.272       .  A
C215        C801   1.479       .  S
H216        O217   0.969       .  S
O217       Ni225   1.904       .  S
O217       Ni219   1.908       .  S
O217       Ni224   1.911       .  S
O218       Ni219   1.945       .  S
Ni219       O223   1.903       .  S
Ni219       O221   1.887       .  S
O220       Ni225   1.930       .  S
C222        O223   1.266       .  A
N227        C231   1.373       .  A
N227        C228   1.372       .  A
N227        C556   1.457       .  S
C228        C229   1.380       .  A
C228        C528   1.505       .  S
C229        C230   1.365       .  A
C229        H232   1.082       .  S
C230        C231   1.382       .  A
C230        H233   1.081       .  S
C231        C584   1.506       .  S
N234        C238   1.360       .  A
N234        C235   1.358       .  A
N234        C549   1.456       .  S
C235        C236   1.380       .  A
C235        C640   1.480       .  S
C236        C237   1.370       .  A
C236        H239   1.080       .  S
C237        C238   1.381       .  A
C237        H240   1.081       .  S
C238        C493   1.481       .  S
N241        C245   1.372   1_565  A
N241        C242   1.373       .  A
N241        C472   1.452       .  S
C242        C243   1.382       .  A
C242       C1144   1.507       .  S
C243        C244   1.366       .  A
C243        H246   1.082       .  S
C244        C245   1.379   1_565  A
C244        H247   1.081   1_565  S
C245        C437   1.510       .  S
N248        C252   1.358       .  A
N248        C249   1.362   1_565  A
N248        C465   1.455       .  S
C249        C250   1.384   1_545  A
C249        C409   1.489       .  S
C250        C251   1.370       .  A
C250        H253   1.079   1_565  S
C251        C252   1.379       .  A
C251        H254   1.082       .  S
C252       C1081   1.479       .  S
N255        C259   1.358       .  A
N255        C256   1.359       .  A
N255        C381   1.459       .  S
C256        C257   1.382       .  A
C256        C668   1.476       .  S
C257        C258   1.366       .  A
C257        H260   1.080       .  S
C258        C259   1.379       .  A
C258        H261   1.081       .  S
C259        C360   1.474       .  S
N262        C266   1.371       .  A
N262        C263   1.370       .  A
N262        C388   1.452       .  S
C263        C264   1.381       .  A
C263        C332   1.503       .  S
C264        C265   1.367       .  A
C264        H267   1.082       .  S
C265        C266   1.381       .  A
C265        H268   1.082       .  S
C266        C605   1.506       .  S
O269       Ni275   1.920       .  S
O269        C290   1.268       .  A
O270       Ni293   1.893       .  S
O270        C279   1.263       .  A
O271       Ni275   1.923       .  S
O271       Ni293   1.903       .  S
O271       Ni287   1.900       .  S
O271        H294   0.966       .  S
C272        C500   1.475       .  S
C272        O289   1.268       .  A
C272        O281   1.275       .  A
O273       Ni292   1.937       .  S
O273        C279   1.273       .  A
O274       Ni292   1.910       .  S
O274        C276   1.270       .  A
Ni275       O278   1.912       .  S
Ni275       O280   1.922       .  S
C276        C444   1.518       .  S
C276        O286   1.280       .  A
O277       Ni293   1.896       .  S
O277        C283   1.270       .  A
O278        C283   1.274       .  A
C279        C305   1.467       .  S
O280        C282   1.270       .  A
O281       Ni292   1.932       .  S
C282       C1312   1.504       .  S
C282        O288   1.272       .  A
C283        C353   1.468       .  S
H284        O285   0.966       .  S
O285       Ni293   1.907       .  S
O285       Ni287   1.912       .  S
O285       Ni292   1.916       .  S
O286       Ni287   1.964       .  S
Ni287       O291   1.903       .  S
Ni287       O289   1.889       .  S
O288       Ni293   1.935       .  S
C290       C1756   1.462       .  S
C290        O291   1.267       .  A
O295       Ni301   1.914       .  S
O295        C316   1.266       .  A
O296       Ni319   1.892       .  S
O296        C305   1.265       .  A
O297       Ni301   1.911       .  S
O297       Ni319   1.900       .  S
O297       Ni313   1.908       .  S
O297        H320   0.966       .  S
C298       C1396   1.474       .  S
C298        O315   1.274       .  A
C298        O307   1.277       .  A
O299       Ni318   1.940       .  S
O299        C305   1.275       .  A
O300       Ni318   1.916       .  S
O300        C302   1.272       .  A
Ni301       O304   1.915       .  S
Ni301       O306   1.922       .  S
C302        C325   1.510       .  S
C302        O312   1.278       .  A
O303       Ni319   1.915       .  S
O303        C309   1.275       .  A
O304        C309   1.274       .  A
O306        C308   1.270       .  A
O307       Ni318   1.930       .  S
C308        C521   1.494       .  S
C308        O314   1.270       .  A
C309        C416   1.491       .  S
H310        O311   0.966       .  S
O311       Ni319   1.907       .  S
O311       Ni313   1.907       .  S
O311       Ni318   1.907       .  S
O312       Ni313   1.951       .  S
Ni313       O317   1.912       .  S
Ni313       O315   1.902       .  S
O314       Ni319   1.929       .  S
C316       C1730   1.462       .  S
C316        O317   1.271       .  A
C321        C322   1.410       .  A
C321        C326   1.414       .  A
C321        C339   1.451       .  S
C322        C323   1.411       .  A
C322        C327   1.510       .  S
C323        C324   1.420       .  A
C323        C328   1.449       .  S
C324        C325   1.421       .  A
C324        C340   1.450       .  S
C325        C326   1.423       .  A
C326        C329   1.452       .  S
C327        C330   1.414       .  A
C327        C334   1.410       .  A
C328        N345   1.157       .  T
C329        N347   1.158       .  T
C330        C331   1.420       .  A
C330        C335   1.449       .  S
C331        C332   1.415       .  A
C331        C337   1.448       .  S
C332        C333   1.420       .  A
C333        C334   1.412       .  A
C333        C336   1.452       .  S
C334        C338   1.451       .  S
C335        N342   1.157       .  T
C336        N343   1.157       .  T
C337        N341   1.157       .  T
C338        N344   1.157       .  T
C339        N348   1.157       .  T
C340        N346   1.157       .  T
C349        C350   1.408       .  A
C349        C354   1.403       .  A
C349        C367   1.452       .  S
C350        C351   1.408       .  A
C350        C355   1.477       .  S
C351        C352   1.402       .  A
C351        C356   1.451       .  S
C352        C353   1.412       .  A
C352        C368   1.452       .  S
C353        C354   1.414       .  A
C354        C357   1.452       .  S
C355        C358   1.408       .  A
C355        C362   1.408       .  A
C356        N373   1.157       .  T
C357        N375   1.157       .  T
C358        C359   1.404       .  A
C358        C363   1.451       .  S
C359        C360   1.411       .  A
C359        C365   1.449       .  S
C360        C361   1.414       .  A
C361        C362   1.400       .  A
C361        C364   1.452       .  S
C362        C366   1.453       .  S
C363        N370   1.157       .  T
C364        N371   1.157       .  T
C365        N369   1.157       .  T
C366        N372   1.157       .  T
C367        N376   1.157       .  T
C368        N374   1.157       .  T
C377        C378   1.411       .  A
C377        C382   1.414       .  A
C377        C395   1.451       .  S
C378        C379   1.411       .  A
C378       C1823   1.507       .  S
C379        C380   1.413       .  A
C379        C384   1.451       .  S
C380        C381   1.418       .  A
C380        C396   1.448       .  S
C381        C382   1.417       .  A
C382        C385   1.447       .  S
C383        C386   1.412       .  A
C383        C390   1.410       .  A
C383       C1818   1.503       .  S
C384        N401   1.157       .  T
C385        N403   1.157       .  T
C386        C387   1.413   1_556  A
C386        C391   1.451       .  S
C387        C388   1.415       .  A
C387        C393   1.447       .  S
C388        C389   1.415       .  A
C389        C390   1.412   1_554  A
C389        C392   1.447       .  S
C390        C394   1.451       .  S
C391       N1838   1.157       .  T
C392        N399   1.157       .  T
C393        N397   1.157       .  T
C394       N1840   1.157       .  T
C395        N404   1.157       .  T
C396        N402   1.157       .  T
N398       C1831   1.157       .  T
N400       C1834   1.157       .  T
C405        C406   1.407       .  A
C405        C410   1.409       .  A
C405        C423   1.450       .  S
C406        C407   1.407       .  A
C406        C411   1.487       .  S
C407        C408   1.405       .  A
C407        C412   1.452       .  S
C408        C409   1.418       .  A
C408        C424   1.451       .  S
C409        C410   1.414       .  A
C410        C413   1.447       .  S
C411        C414   1.406       .  A
C411        C418   1.408       .  A
C412        N429   1.157       .  T
C413        N431   1.157       .  T
C414        C415   1.410       .  A
C414        C419   1.451       .  S
C415        C416   1.422       .  A
C415        C421   1.452       .  S
C416        C417   1.419       .  A
C417        C418   1.406       .  A
C417        C420   1.452       .  S
C418        C422   1.453       .  S
C419        N426   1.157       .  T
C420        N427   1.157       .  T
C421        N425   1.158       .  T
C422        N428   1.157       .  T
C423        N432   1.157       .  T
C424        N430   1.157       .  T
C433        C434   1.415       .  A
C433        C438   1.423       .  A
C433        C451   1.450       .  S
C434        C435   1.410       .  A
C434        C439   1.515       .  S
C435        C436   1.414       .  A
C435        C440   1.451       .  S
C436        C437   1.421       .  A
C436        C452   1.451       .  S
C437        C438   1.418       .  A
C438        C441   1.448       .  S
C439        C442   1.411       .  A
C439        C446   1.413       .  A
C440        N457   1.157       .  T
C441        N459   1.157       .  T
C442        C443   1.417       .  A
C442        C447   1.452       .  S
C443        C444   1.427       .  A
C443        C449   1.452       .  S
C444        C445   1.422       .  A
C445        C446   1.422       .  A
C445        C448   1.450       .  S
C446        C450   1.450       .  S
C447        N454   1.157       .  T
C448        N455   1.157       .  T
C449        N453   1.158       .  T
C450        N456   1.157       .  T
C451        N460   1.157       .  T
C452        N458   1.157       .  T
C461        C462   1.412   1_545  A
C461        C466   1.414       .  A
C461        C479   1.450       .  S
C462        C463   1.410       .  A
C462       C1907   1.505       .  S
C463        C464   1.412       .  A
C463        C468   1.452       .  S
C464        C465   1.417       .  A
C464        C480   1.446       .  S
C465        C466   1.415   1_565  A
C466        C469   1.448       .  S
C467        C470   1.413       .  A
C467        C474   1.410       .  A
C467       C1902   1.501       .  S
C468        N485   1.157       .  T
C469        N487   1.157       .  T
C470        C471   1.414       .  A
C470        C475   1.452       .  S
C471        C472   1.415       .  A
C471        C477   1.446       .  S
C472        C473   1.415       .  A
C473        C474   1.409       .  A
C473        C476   1.447   1_565  S
C474        C478   1.451   1_565  S
C475        N482   1.157       .  T
C476        N483   1.157       .  T
C477        N481   1.157       .  T
C478        N484   1.157       .  T
C479        N488   1.157       .  T
C480        N486   1.157       .  T
C489        C490   1.406       .  A
C489        C494   1.405       .  A
C489        C507   1.450       .  S
C490        C491   1.409       .  A
C490        C495   1.482       .  S
C491        C492   1.405       .  A
C491        C496   1.452       .  S
C492        C493   1.414       .  A
C492        C508   1.451       .  S
C493        C494   1.412       .  A
C494        C497   1.448       .  S
C495        C498   1.408       .  A
C495        C502   1.408       .  A
C496        N513   1.157       .  T
C497        N515   1.157       .  T
C498        C499   1.408       .  A
C498        C503   1.451       .  S
C499        C500   1.415       .  A
C499        C505   1.451       .  S
C500        C501   1.415       .  A
C501        C502   1.404       .  A
C501        C504   1.453       .  S
C502        C506   1.453       .  S
C503        N510   1.157       .  T
C504        N511   1.157       .  T
C505        N509   1.157       .  T
C506        N512   1.157       .  T
C507        N516   1.157       .  T
C508        N514   1.157       .  T
C517        C518   1.412       .  A
C517        C522   1.414       .  A
C517        C535   1.451       .  S
C518        C519   1.412       .  A
C518        C523   1.506       .  S
C519        C520   1.416       .  A
C519        C524   1.450       .  S
C520        C521   1.415       .  A
C520        C536   1.450       .  S
C521        C522   1.416       .  A
C522        C525   1.451       .  S
C523        C526   1.413       .  A
C523        C530   1.408       .  A
C524        N541   1.157       .  T
C525        N543   1.157       .  T
C526        C527   1.419       .  A
C526        C531   1.449       .  S
C527        C528   1.416       .  A
C527        C533   1.448       .  S
C528        C529   1.422       .  A
C529        C530   1.410       .  A
C529        C532   1.453       .  S
C530        C534   1.452       .  S
C531        N538   1.157       .  T
C532        N539   1.157       .  T
C533        N537   1.157       .  T
C534        N540   1.157       .  T
C535        N544   1.157       .  T
C536        N542   1.157       .  T
C545        C546   1.410       .  A
C545        C550   1.413       .  A
C545        C563   1.451       .  S
C546        C547   1.411       .  A
C546        C551   1.504       .  S
C547        C548   1.414       .  A
C547        C552   1.451       .  S
C548        C549   1.417       .  A
C548        C564   1.446       .  S
C549        C550   1.417       .  A
C550        C553   1.447       .  S
C551        C554   1.411       .  A
C551        C558   1.409       .  A
C552        N569   1.157       .  T
C553        N571   1.157       .  T
C554        C555   1.413       .  A
C554        C559   1.451       .  S
C555        C556   1.417       .  A
C555        C561   1.447       .  S
C556        C557   1.419       .  A
C557        C558   1.413       .  A
C557        C560   1.447       .  S
C558        C562   1.451       .  S
C559        N566   1.157       .  T
C560        N567   1.157       .  T
C561        N565   1.157       .  T
C562        N568   1.157       .  T
C563        N572   1.157       .  T
C564        N570   1.157       .  T
C573        C574   1.413       .  A
C573        C578   1.421       .  A
C573        C591   1.449       .  S
C574        C575   1.412       .  A
C574        C579   1.510       .  S
C575        C576   1.413       .  A
C575        C580   1.452       .  S
C576        C577   1.419       .  A
C576        C592   1.452       .  S
C577        C578   1.419       .  A
C578        C581   1.450       .  S
C579        C582   1.408       .  A
C579        C586   1.414       .  A
C580        N597   1.157       .  T
C581        N599   1.158       .  T
C582        C583   1.412       .  A
C582        C587   1.451       .  S
C583        C584   1.422       .  A
C583        C589   1.452       .  S
C584        C585   1.416       .  A
C585        C586   1.420       .  A
C585        C588   1.448       .  S
C586        C590   1.450       .  S
C587        N594   1.157       .  T
C588        N595   1.157       .  T
C589        N593   1.157       .  T
C590        N596   1.157       .  T
C591        N600   1.157       .  T
C592        N598   1.157       .  T
C601        C602   1.410       .  A
C601        C606   1.419   1_655  A
C601        C619   1.450       .  S
C602        C603   1.409       .  A
C602        C607   1.506       .  S
C603        C604   1.412   1_655  A
C603        C608   1.452       .  S
C604        C605   1.422       .  A
C604        C620   1.452       .  S
C605        C606   1.419       .  A
C606        C609   1.446       .  S
C607        C610   1.412       .  A
C607        C614   1.409       .  A
C608        N625   1.157       .  T
C609        N627   1.157       .  T
C610        C611   1.415       .  A
C610        C615   1.451       .  S
C611        C612   1.417       .  A
C611        C617   1.451       .  S
C612        C613   1.420       .  A
C613        C614   1.416       .  A
C613        C616   1.451       .  S
C614        C618   1.450       .  S
C615        N622   1.157       .  T
C616        N623   1.157       .  T
C617        N621   1.157       .  T
C618        N624   1.157       .  T
C619        N628   1.157       .  T
C620        N626   1.157       .  T
C629        C630   1.406       .  A
C629        C634   1.406       .  A
C629        C647   1.451       .  S
C630        C631   1.407       .  A
C630        C635   1.483       .  S
C631        C632   1.406       .  A
C631        C636   1.452       .  S
C632        C633   1.420       .  A
C632        C648   1.452       .  S
C633        C634   1.418       .  A
C634        C637   1.452       .  S
C635        C638   1.407       .  A
C635        C642   1.409       .  A
C636        N653   1.157       .  T
C637        N655   1.157       .  T
C638        C639   1.403       .  A
C638        C643   1.453       .  S
C639        C640   1.416       .  A
C639        C645   1.453       .  S
C640        C641   1.412       .  A
C641        C642   1.408       .  A
C641        C644   1.449       .  S
C642        C646   1.450       .  S
C643        N650   1.157       .  T
C644        N651   1.157       .  T
C645        N649   1.157       .  T
C646        N652   1.157       .  T
C647        N656   1.157       .  T
C648        N654   1.158       .  T
C657        C658   1.409       .  A
C657        C662   1.406       .  A
C657        C675   1.451       .  S
C658        C659   1.408       .  A
C658        C663   1.479       .  S
C659        C660   1.403       .  A
C659        C664   1.452       .  S
C660        C661   1.413       .  A
C660        C676   1.452       .  S
C661        C662   1.413       .  A
C662        C665   1.451       .  S
C663        C666   1.408       .  A
C663        C670   1.406       .  A
C664        N681   1.157       .  T
C665        N683   1.157       .  T
C666        C667   1.406   1_655  A
C666        C671   1.451       .  S
C667        C668   1.411       .  A
C667        C673   1.449       .  S
C668        C669   1.416       .  A
C669        C670   1.401   1_455  A
C669        C672   1.453       .  S
C670        C674   1.452       .  S
C671        N678   1.157       .  T
C672        N679   1.157       .  T
C673        N677   1.157       .  T
C674        N680   1.157       .  T
C675        N684   1.157       .  T
C676        N682   1.157       .  T
C685        C686   1.409       .  A
C685        C690   1.404       .  A
C685        C703   1.450       .  S
C686        C687   1.410       .  A
C686        C691   1.481       .  S
C687        C688   1.405       .  A
C687        C692   1.451       .  S
C688        C689   1.410       .  A
C688        C704   1.452       .  S
C689        C690   1.409       .  A
C690        C693   1.452       .  S
C691        C694   1.407       .  A
C691        C698   1.406       .  A
C692        N709   1.157       .  T
C693        N711   1.157       .  T
C694        C695   1.406       .  A
C694        C699   1.451       .  S
C695        C696   1.415       .  A
C695        C701   1.451       .  S
C696        C697   1.411       .  A
C697        C698   1.405       .  A
C697        C700   1.448       .  S
C698        C702   1.451       .  S
C699        N706   1.157       .  T
C700        N707   1.157       .  T
C701        N705   1.157       .  T
C702        N708   1.157       .  T
C703        N712   1.157       .  T
C704        N710   1.157       .  T
C713        C714   1.410       .  A
C713        C718   1.410       .  A
C713        C731   1.452       .  S
C714        C715   1.414       .  A
C714        C719   1.508       .  S
C715        C716   1.420       .  A
C715        C720   1.449       .  S
C716        C717   1.415       .  A
C716        C732   1.448       .  S
C717        C718   1.420       .  A
C718        C721   1.453       .  S
C719        C722   1.410       .  A
C719        C726   1.413       .  A
C720        N737   1.157       .  T
C721        N739   1.157       .  T
C722        C723   1.418       .  A
C722        C727   1.450       .  S
C723        C724   1.421       .  A
C723        C729   1.451       .  S
C724        C725   1.416       .  A
C725        C726   1.414       .  A
C725        C728   1.451       .  S
C726        C730   1.450       .  S
C727        N734   1.157       .  T
C728        N735   1.157       .  T
C729        N733   1.158       .  T
C730        N736   1.157       .  T
C731        N740   1.157       .  T
C732        N738   1.157       .  T
C741        C742   1.413       .  A
C741        C746   1.412       .  A
C741        C759   1.451       .  S
C742        C743   1.412       .  A
C742       C2187   1.502       .  S
C743        C744   1.410       .  A
C743        C748   1.452   1_545  S
C744        C745   1.414       .  A
C744        C760   1.447   1_545  S
C745        C746   1.414       .  A
C746        C749   1.447       .  S
C747        C750   1.409   1_545  A
C747        C754   1.408       .  A
C747       C2182   1.498       .  S
C748        N765   1.157       .  T
C749        N767   1.157       .  T
C750        C751   1.411       .  A
C750        C755   1.452       .  S
C751        C752   1.419   1_565  A
C751        C757   1.446       .  S
C752        C753   1.418       .  A
C753        C754   1.410       .  A
C753        C756   1.446       .  S
C754        C758   1.452       .  S
C755       N2202   1.157       .  T
C756        N763   1.157       .  T
C757        N761   1.157       .  T
C758       N2204   1.157       .  T
C759        N768   1.157       .  T
C760        N766   1.157       .  T
N762       C2195   1.157       .  T
N764       C2198   1.157       .  T
C769        C770   1.412       .  A
C769        C774   1.422       .  A
C769        C787   1.450       .  S
C770        C771   1.408       .  A
C770        C775   1.512       .  S
C771        C772   1.414       .  A
C771        C776   1.451       .  S
C772        C773   1.424       .  A
C772        C788   1.452       .  S
C773        C774   1.419       .  A
C774        C777   1.446       .  S
C775        C778   1.411       .  A
C775        C782   1.412       .  A
C776        N793   1.157       .  T
C777        N795   1.157       .  T
C778        C779   1.415       .  A
C778        C783   1.453       .  S
C779        C780   1.423       .  A
C779        C785   1.452       .  S
C780        C781   1.423       .  A
C781        C782   1.422       .  A
C781        C784   1.450       .  S
C782        C786   1.449       .  S
C783        N790   1.157       .  T
C784        N791   1.158       .  T
C785        N789   1.158       .  T
C786        N792   1.157       .  T
C787        N796   1.157       .  T
C788        N794   1.157       .  T
C797        C798   1.406       .  A
C797        C802   1.403       .  A
C797        C815   1.452       .  S
C798        C799   1.409       .  A
C798        C803   1.482       .  S
C799        C800   1.407       .  A
C799        C804   1.451       .  S
C800        C801   1.416       .  A
C800        C816   1.452       .  S
C801        C802   1.418       .  A
C802        C805   1.453       .  S
C803        C806   1.408       .  A
C803        C810   1.407       .  A
C804        N821   1.157       .  T
C805        N823   1.158       .  T
C806        C807   1.405       .  A
C806        C811   1.451       .  S
C807        C808   1.412       .  A
C807        C813   1.449       .  S
C808        C809   1.416       .  A
C809        C810   1.404       .  A
C809        C812   1.452   1_554  S
C810        C814   1.452       .  S
C811        N818   1.157       .  T
C812        N819   1.157       .  T
C813        N817   1.157       .  T
C814        N820   1.157       .  T
C815        N824   1.157       .  T
C816        N822   1.158       .  T
C825        C826   1.410       .  A
C825        C830   1.413       .  A
C825        C843   1.451       .  S
C826        C827   1.411       .  A
C826        C831   1.501       .  S
C827        C828   1.409       .  A
C827        C832   1.451       .  S
C828        C829   1.415       .  A
C828        C844   1.448       .  S
C829        C830   1.417       .  A
C830        C833   1.447       .  S
C831        C834   1.412       .  A
C831        C838   1.410       .  A
C832        N849   1.157       .  T
C833        N851   1.157       .  T
C834        C835   1.414       .  A
C834        C839   1.450       .  S
C835        C836   1.415       .  A
C835        C841   1.448       .  S
C836        C837   1.415       .  A
C837        C838   1.408       .  A
C837        C840   1.447       .  S
C838        C842   1.453       .  S
C839        N846   1.157       .  T
C840        N847   1.157       .  T
C841        N845   1.157       .  T
C842        N848   1.157       .  T
C843        N852   1.157       .  T
C844        N850   1.157       .  T
C853        C854   1.407       .  A
C853        C858   1.407       .  A
C853        C871   1.451       .  S
C854        C855   1.408       .  A
C854        C859   1.484       .  S
C855        C856   1.404       .  A
C855        C860   1.452       .  S
C856        C857   1.415       .  A
C856        C872   1.452   1_554  S
C857        C858   1.413       .  A
C858        C861   1.448       .  S
C859        C862   1.409       .  A
C859        C866   1.408       .  A
C860        N877   1.157       .  T
C861        N879   1.157       .  T
C862        C863   1.406       .  A
C862        C867   1.450       .  S
C863        C864   1.412       .  A
C863        C869   1.452       .  S
C864        C865   1.412       .  A
C865        C866   1.405       .  A
C865        C868   1.452       .  S
C866        C870   1.450       .  S
C867        N874   1.157   1_554  T
C868        N875   1.157       .  T
C869        N873   1.157       .  T
C870        N876   1.157       .  T
C871        N880   1.157       .  T
C872        N878   1.157       .  T
C881        C882   1.409       .  A
C881        C886   1.406       .  A
C881        C899   1.451       .  S
C882        C883   1.408       .  A
C882        C887   1.487       .  S
C883        C884   1.407       .  A
C883        C888   1.451       .  S
C884        C885   1.413       .  A
C884        C900   1.448       .  S
C885        C886   1.415       .  A
C886        C889   1.452       .  S
C887        C890   1.407       .  A
C887        C894   1.407       .  A
C888        N905   1.157       .  T
C889        N907   1.157       .  T
C890        C891   1.408       .  A
C890        C895   1.452       .  S
C891        C892   1.421       .  A
C891        C897   1.452       .  S
C892        C893   1.421       .  A
C893        C894   1.406       .  A
C893        C896   1.452       .  S
C894        C898   1.453       .  S
C895        N902   1.157       .  T
C896        N903   1.158       .  T
C897        N901   1.158       .  T
C898        N904   1.157       .  T
C899        N908   1.157       .  T
C900        N906   1.157       .  T
C909        C910   1.414       .  A
C909        C914   1.422       .  A
C909        C927   1.449       .  S
C910        C911   1.410       .  A
C910        C915   1.515       .  S
C911        C912   1.415       .  A
C911        C916   1.451       .  S
C912        C913   1.423       .  A
C912        C928   1.452       .  S
C913        C914   1.417       .  A
C914        C917   1.447       .  S
C915        C918   1.414       .  A
C915        C922   1.413       .  A
C916        N933   1.157       .  T
C917        N935   1.157       .  T
C918        C919   1.417       .  A
C918        C923   1.450       .  S
C919        C920   1.416       .  A
C919        C925   1.450       .  S
C920        C921   1.420       .  A
C921        C922   1.420       .  A
C921        C924   1.451       .  S
C922        C926   1.450       .  S
C923        N930   1.157       .  T
C924        N931   1.158       .  T
C925        N929   1.157       .  T
C926        N932   1.157       .  T
C927        N936   1.157       .  T
C928        N934   1.157       .  T
C937        C938   1.410       .  A
C937        C942   1.416       .  A
C937        C955   1.453       .  S
C938        C939   1.409       .  A
C938        C943   1.509       .  S
C939        C940   1.420       .  A
C939        C944   1.450       .  S
C940        C941   1.425       .  A
C940        C956   1.450       .  S
C941        C942   1.429       .  A
C942        C945   1.452       .  S
C943        C946   1.413       .  A
C943        C950   1.408       .  A
C944        N961   1.157       .  T
C945        N963   1.158       .  T
C946        C947   1.420       .  A
C946        C951   1.449       .  S
C947        C948   1.416       .  A
C947        C953   1.448       .  S
C948        C949   1.423       .  A
C949        C950   1.411       .  A
C949        C952   1.453       .  S
C950        C954   1.451       .  S
C951        N958   1.157       .  T
C952        N959   1.157       .  T
C953        N957   1.157       .  T
C954        N960   1.157       .  T
C955        N964   1.158       .  T
C956        N962   1.157       .  T
C965        C966   1.409       .  A
C965        C970   1.406       .  A
C965        C983   1.452       .  S
C966        C967   1.406       .  A
C966        C971   1.482       .  S
C967        C968   1.405       .  A
C967        C972   1.450       .  S
C968        C969   1.411       .  A
C968        C984   1.448       .  S
C969        C970   1.414       .  A
C970        C973   1.451       .  S
C971        C974   1.408       .  A
C971        C978   1.409       .  A
C972        N989   1.157       .  T
C973        N991   1.157       .  T
C974        C975   1.403       .  A
C974        C979   1.452       .  S
C975        C976   1.413       .  A
C975        C981   1.453       .  S
C976        C977   1.413       .  A
C977        C978   1.408       .  A
C977        C980   1.452       .  S
C978        C982   1.451       .  S
C979        N986   1.157       .  T
C980        N987   1.158       .  T
C981        N985   1.157       .  T
C982        N988   1.157       .  T
C983        N992   1.157       .  T
C984        N990   1.157       .  T
C993        C994   1.412       .  A
C993        C998   1.417       .  A
C993       C1011   1.449       .  S
C994        C995   1.409       .  A
C994        C999   1.505       .  S
C995        C996   1.411       .  A
C995       C1000   1.451       .  S
C996        C997   1.421       .  A
C996       C1012   1.453       .  S
C997        C998   1.414       .  A
C998       C1001   1.448       .  S
C999       C1002   1.413       .  A
C999       C1006   1.411       .  A
C1000      N1017   1.157       .  T
C1001      N1019   1.157       .  T
C1002      C1003   1.415       .  A
C1002      C1007   1.451       .  S
C1003      C1004   1.416       .  A
C1003      C1009   1.451       .  S
C1004      C1005   1.417       .  A
C1005      C1006   1.415       .  A
C1005      C1008   1.451       .  S
C1006      C1010   1.450       .  S
C1007      N1014   1.157       .  T
C1008      N1015   1.157       .  T
C1009      N1013   1.157       .  T
C1010      N1016   1.157       .  T
C1011      N1020   1.157       .  T
C1012      N1018   1.157       .  T
C1021      C1022   1.410       .  A
C1021      C1026   1.412       .  A
C1021      C1039   1.452       .  S
C1022      C1023   1.410       .  A
C1022      C1027   1.505       .  S
C1023      C1024   1.415       .  A
C1023      C1028   1.450       .  S
C1024      C1025   1.418       .  A
C1024      C1040   1.447       .  S
C1025      C1026   1.417       .  A
C1026      C1029   1.446       .  S
C1027      C1030   1.411       .  A
C1027      C1034   1.411       .  A
C1028      N1045   1.157       .  T
C1029      N1047   1.157       .  T
C1030      C1031   1.412       .  A
C1030      C1035   1.451       .  S
C1031      C1032   1.416       .  A
C1031      C1037   1.447       .  S
C1032      C1033   1.417       .  A
C1033      C1034   1.415       .  A
C1033      C1036   1.446       .  S
C1034      C1038   1.451       .  S
C1035      N1042   1.157       .  T
C1036      N1043   1.157       .  T
C1037      N1041   1.157       .  T
C1038      N1044   1.157       .  T
C1039      N1048   1.157       .  T
C1040      N1046   1.157       .  T
C1049      C1050   1.413       .  A
C1049      C1054   1.416       .  A
C1049      C1067   1.450       .  S
C1050      C1051   1.412       .  A
C1050      C1055   1.504       .  S
C1051      C1052   1.410       .  A
C1051      C1056   1.452       .  S
C1052      C1053   1.418       .  A
C1052      C1068   1.453       .  S
C1053      C1054   1.417       .  A
C1054      C1057   1.450       .  S
C1055      C1058   1.409       .  A
C1055      C1062   1.414       .  A
C1056      N1073   1.157       .  T
C1057      N1075   1.157       .  T
C1058      C1059   1.409       .  A
C1058      C1063   1.452       .  S
C1059      C1060   1.420       .  A
C1059      C1065   1.452       .  S
C1060      C1061   1.415       .  A
C1061      C1062   1.417       .  A
C1061      C1064   1.448       .  S
C1062      C1066   1.450       .  S
C1063      N1070   1.157       .  T
C1064      N1071   1.157       .  T
C1065      N1069   1.157       .  T
C1066      N1072   1.157       .  T
C1067      N1076   1.157       .  T
C1068      N1074   1.157       .  T
C1077      C1078   1.410       .  A
C1077      C1082   1.403       .  A
C1077      C1095   1.451       .  S
C1078      C1079   1.411       .  A
C1078      C1083   1.489       .  S
C1079      C1080   1.409       .  A
C1079      C1084   1.450       .  S
C1080      C1081   1.411       .  A
C1080      C1096   1.449       .  S
C1081      C1082   1.412       .  A
C1082      C1085   1.453       .  S
C1083      C1086   1.410       .  A
C1083      C1090   1.411       .  A
C1084      N1101   1.157       .  T
C1085      N1103   1.157       .  T
C1086      C1087   1.406       .  A
C1086      C1091   1.450       .  S
C1087      C1088   1.413       .  A
C1087      C1093   1.452       .  S
C1088      C1089   1.414       .  A
C1089      C1090   1.408       .  A
C1089      C1092   1.452       .  S
C1090      C1094   1.452       .  S
C1091      N1098   1.157       .  T
C1092      N1099   1.157       .  T
C1093      N1097   1.157       .  T
C1094      N1100   1.157       .  T
C1095      N1104   1.157       .  T
C1096      N1102   1.157       .  T
C1105      C1106   1.409       .  A
C1105      C1110   1.407       .  A
C1105      C1123   1.451       .  S
C1106      C1107   1.411       .  A
C1106      C1111   1.488       .  S
C1107      C1108   1.406       .  A
C1107      C1112   1.452       .  S
C1108      C1109   1.413       .  A
C1108      C1124   1.451       .  S
C1109      C1110   1.415       .  A
C1110      C1113   1.453       .  S
C1111      C1114   1.411       .  A
C1111      C1118   1.409       .  A
C1112      N1129   1.157       .  T
C1113      N1131   1.158       .  T
C1114      C1115   1.410       .  A
C1114      C1119   1.451       .  S
C1115      C1116   1.412       .  A
C1115      C1121   1.449       .  S
C1116      C1117   1.414       .  A
C1117      C1118   1.403       .  A
C1117      C1120   1.452       .  S
C1118      C1122   1.453       .  S
C1119      N1126   1.157       .  T
C1120      N1127   1.157       .  T
C1121      N1125   1.157       .  T
C1122      N1128   1.157       .  T
C1123      N1132   1.157       .  T
C1124      N1130   1.157       .  T
C1133      C1134   1.414       .  A
C1133      C1138   1.418       .  A
C1133      C1151   1.448       .  S
C1134      C1135   1.411       .  A
C1134      C1139   1.514       .  S
C1135      C1136   1.419       .  A
C1135      C1140   1.450       .  S
C1136      C1137   1.422       .  A
C1136      C1152   1.451       .  S
C1137      C1138   1.417       .  A
C1138      C1141   1.450       .  S
C1139      C1142   1.415       .  A
C1139      C1146   1.410       .  A
C1140      N1157   1.157       .  T
C1141      N1159   1.157       .  T
C1142      C1143   1.423       .  A
C1142      C1147   1.449       .  S
C1143      C1144   1.415       .  A
C1143      C1149   1.447       .  S
C1144      C1145   1.420       .  A
C1145      C1146   1.413       .  A
C1145      C1148   1.453       .  S
C1146      C1150   1.451       .  S
C1147      N1154   1.157       .  T
C1148      N1155   1.157       .  T
C1149      N1153   1.157       .  T
C1150      N1156   1.157       .  T
C1151      N1160   1.156       .  T
C1152      N1158   1.158       .  T
C1161      C1162   1.408       .  A
C1161      C1166   1.413       .  A
C1161      C1179   1.451       .  S
C1162      C1163   1.411       .  A
C1162      C1167   1.508       .  S
C1163      C1164   1.419       .  A
C1163      C1168   1.450       .  S
C1164      C1165   1.418       .  A
C1164      C1180   1.447       .  S
C1165      C1166   1.422       .  A
C1166      C1169   1.451       .  S
C1167      C1170   1.407       .  A
C1167      C1174   1.412       .  A
C1168      N1185   1.157       .  T
C1169      N1187   1.157       .  T
C1170      C1171   1.415       .  A
C1170      C1175   1.451       .  S
C1171      C1172   1.423       .  A
C1171      C1177   1.447       .  S
C1172      C1173   1.422       .  A
C1173      C1174   1.417       .  A
C1173      C1176   1.451       .  S
C1174      C1178   1.450       .  S
C1175      N1182   1.157       .  T
C1176      N1183   1.158       .  T
C1177      N1181   1.156       .  T
C1178      N1184   1.157       .  T
C1179      N1188   1.157       .  T
C1180      N1186   1.157       .  T
C1189      C1190   1.413       .  A
C1189      C1194   1.418       .  A
C1189      C1207   1.450       .  S
C1190      C1191   1.409       .  A
C1190      C1195   1.503       .  S
C1191      C1192   1.409       .  A
C1191      C1196   1.451       .  S
C1192      C1193   1.418   1_655  A
C1192      C1208   1.452   1_655  S
C1193      C1194   1.414   1_455  A
C1194      C1197   1.448   1_655  S
C1195      C1198   1.409       .  A
C1195      C1202   1.411       .  A
C1196      N1213   1.157       .  T
C1197      N1215   1.157       .  T
C1198      C1199   1.409       .  A
C1198      C1203   1.453       .  S
C1199      C1200   1.422       .  A
C1199      C1205   1.452       .  S
C1200      C1201   1.420       .  A
C1201      C1202   1.419       .  A
C1201      C1204   1.450       .  S
C1202      C1206   1.449       .  S
C1203      N1210   1.157       .  T
C1204      N1211   1.158       .  T
C1205      N1209   1.157       .  T
C1206      N1212   1.157       .  T
C1207      N1216   1.157       .  T
C1208      N1214   1.157       .  T
C1217      C1218   1.409       .  A
C1217      C1222   1.402       .  A
C1217      C1235   1.452       .  S
C1218      C1219   1.407       .  A
C1218      C1223   1.480       .  S
C1219      C1220   1.405       .  A
C1219      C1224   1.451       .  S
C1220      C1221   1.412       .  A
C1220      C1236   1.450       .  S
C1221      C1222   1.411       .  A
C1222      C1225   1.452       .  S
C1223      C1226   1.407       .  A
C1223      C1230   1.407       .  A
C1224      N1241   1.157       .  T
C1225      N1243   1.157       .  T
C1226      C1227   1.405       .  A
C1226      C1231   1.452       .  S
C1227      C1228   1.416       .  A
C1227      C1233   1.452       .  S
C1228      C1229   1.415       .  A
C1229      C1230   1.405       .  A
C1229      C1232   1.450       .  S
C1230      C1234   1.453       .  S
C1231      N1238   1.157       .  T
C1232      N1239   1.157       .  T
C1233      N1237   1.157       .  T
C1234      N1240   1.157       .  T
C1235      N1244   1.157       .  T
C1236      N1242   1.157       .  T
C1245      C1246   1.408       .  A
C1245      C1250   1.402   1_655  A
C1245      C1263   1.451       .  S
C1246      C1247   1.409       .  A
C1246      C1251   1.481       .  S
C1247      C1248   1.403       .  A
C1247      C1252   1.453       .  S
C1248      C1249   1.416   1_655  A
C1248      C1264   1.452       .  S
C1249      C1250   1.410       .  A
C1250      C1253   1.448       .  S
C1251      C1254   1.411       .  A
C1251      C1258   1.408       .  A
C1252      N1269   1.157       .  T
C1253      N1271   1.157       .  T
C1254      C1255   1.404       .  A
C1254      C1259   1.452       .  S
C1255      C1256   1.413       .  A
C1255      C1261   1.452       .  S
C1256      C1257   1.414       .  A
C1257      C1258   1.402       .  A
C1257      C1260   1.453       .  S
C1258      C1262   1.452       .  S
C1259      N1266   1.157       .  T
C1260      N1267   1.157       .  T
C1261      N1265   1.157       .  T
C1262      N1268   1.157       .  T
C1263      N1272   1.157       .  T
C1264      N1270   1.157   1_655  T
C1273      C1274   1.414       .  A
C1273      C1278   1.413       .  A
C1273      C1291   1.452       .  S
C1274      C1275   1.411       .  A
C1274      C2719   1.504       .  S
C1275      C1276   1.411       .  A
C1275      C1280   1.451       .  S
C1276      C1277   1.416       .  A
C1276      C1292   1.447       .  S
C1277      C1278   1.415       .  A
C1278      C1281   1.447       .  S
C1279      C1282   1.407       .  A
C1279      C1286   1.409       .  A
C1279      C2714   1.496       .  S
C1280      N1297   1.157       .  T
C1281      N1299   1.157       .  T
C1282      C1283   1.409   1_556  A
C1282      C1287   1.452       .  S
C1283      C1284   1.417       .  A
C1283      C1289   1.446       .  S
C1284      C1285   1.417       .  A
C1285      C1286   1.412   1_554  A
C1285      C1288   1.446       .  S
C1286      C1290   1.452       .  S
C1287      N1294   1.157       .  T
C1288      N1295   1.157       .  T
C1289      N1293   1.156       .  T
C1290      N1296   1.157       .  T
C1291      N1300   1.157       .  T
C1292      N1298   1.157       .  T
C1301      C1302   1.410       .  A
C1301      C1306   1.413       .  A
C1301      C1319   1.451       .  S
C1302      C1303   1.415       .  A
C1302      C1307   1.513       .  S
C1303      C1304   1.423       .  A
C1303      C1308   1.449       .  S
C1304      C1305   1.416       .  A
C1304      C1320   1.448       .  S
C1305      C1306   1.419       .  A
C1306      C1309   1.451       .  S
C1307      C1310   1.411       .  A
C1307      C1314   1.413       .  A
C1308      N1325   1.157       .  T
C1309      N1327   1.157       .  T
C1310      C1311   1.418       .  A
C1310      C1315   1.450       .  S
C1311      C1312   1.419       .  A
C1311      C1317   1.451       .  S
C1312      C1313   1.417       .  A
C1313      C1314   1.418       .  A
C1313      C1316   1.450       .  S
C1314      C1318   1.449       .  S
C1315      N1322   1.157       .  T
C1316      N1323   1.158       .  T
C1317      N1321   1.157       .  T
C1318      N1324   1.157       .  T
C1319      N1328   1.157       .  T
C1320      N1326   1.157       .  T
C1329      C1330   1.411       .  A
C1329      C1334   1.414       .  A
C1329      C1347   1.453       .  S
C1330      C1331   1.410       .  A
C1330      C1335   1.512       .  S
C1331      C1332   1.421       .  A
C1331      C1336   1.451       .  S
C1332      C1333   1.428       .  A
C1332      C1348   1.449       .  S
C1333      C1334   1.427       .  A
C1334      C1337   1.452       .  S
C1335      C1338   1.414       .  A
C1335      C1342   1.411       .  A
C1336      N1353   1.157       .  T
C1337      N1355   1.157       .  T
C1338      C1339   1.420       .  A
C1338      C1343   1.450       .  S
C1339      C1340   1.416       .  A
C1339      C1345   1.448       .  S
C1340      C1341   1.419       .  A
C1341      C1342   1.412       .  A
C1341      C1344   1.451       .  S
C1342      C1346   1.451       .  S
C1343      N1350   1.157       .  T
C1344      N1351   1.157       .  T
C1345      N1349   1.157       .  T
C1346      N1352   1.157       .  T
C1347      N1356   1.157       .  T
C1348      N1354   1.157       .  T
C1357      C1358   1.412       .  A
C1357      C1362   1.410       .  A
C1357      C1375   1.451       .  S
C1358      C1359   1.411       .  A
C1358      C1363   1.496       .  S
C1359      C1360   1.409       .  A
C1359      C1364   1.450       .  S
C1360      C1361   1.410       .  A
C1360      C1376   1.449       .  S
C1361      C1362   1.411       .  A
C1362      C1365   1.449       .  S
C1363      C1366   1.409       .  A
C1363      C1370   1.410       .  A
C1364      N1381   1.157       .  T
C1365      N1383   1.158       .  T
C1366      C1367   1.410       .  A
C1366      C1371   1.452       .  S
C1367      C1368   1.418       .  A
C1367      C1373   1.452       .  S
C1368      C1369   1.418       .  A
C1369      C1370   1.412       .  A
C1369      C1372   1.447       .  S
C1370      C1374   1.452       .  S
C1371      N1378   1.157       .  T
C1372      N1379   1.156       .  T
C1373      N1377   1.157       .  T
C1374      N1380   1.157   1_554  T
C1375      N1384   1.157       .  T
C1376      N1382   1.157       .  T
C1385      C1386   1.409       .  A
C1385      C1390   1.410       .  A
C1385      C1403   1.451       .  S
C1386      C1387   1.407       .  A
C1386      C1391   1.490       .  S
C1387      C1388   1.407       .  A
C1387      C1392   1.451       .  S
C1388      C1389   1.414       .  A
C1388      C1404   1.449       .  S
C1389      C1390   1.412       .  A
C1390      C1393   1.448       .  S
C1391      C1394   1.411       .  A
C1391      C1398   1.410       .  A
C1392      N1409   1.157       .  T
C1393      N1411   1.157       .  T
C1394      C1395   1.406       .  A
C1394      C1399   1.451       .  S
C1395      C1396   1.412       .  A
C1395      C1401   1.452       .  S
C1396      C1397   1.413       .  A
C1397      C1398   1.410       .  A
C1397      C1400   1.451       .  S
C1398      C1402   1.450       .  S
C1399      N1406   1.157       .  T
C1400      N1407   1.157       .  T
C1401      N1405   1.157       .  T
C1402      N1408   1.157       .  T
C1403      N1412   1.157       .  T
C1404      N1410   1.156   1_554  T
C1413      C1414   1.413       .  A
C1413      C1418   1.410       .  A
C1413      C1431   1.451       .  S
C1414      C1415   1.413       .  A
C1414      C1419   1.504       .  S
C1415      C1416   1.410       .  A
C1415      C1420   1.452       .  S
C1416      C1417   1.413       .  A
C1416      C1432   1.446       .  S
C1417      C1418   1.412       .  A
C1418      C1421   1.445       .  S
C1419      C1422   1.411       .  A
C1419      C1426   1.414       .  A
C1420      N1437   1.157       .  T
C1421      N1439   1.157       .  T
C1422      C1423   1.410       .  A
C1422      C1427   1.451       .  S
C1423      C1424   1.414       .  A
C1423      C1429   1.446       .  S
C1424      C1425   1.415       .  A
C1425      C1426   1.413       .  A
C1425      C1428   1.445       .  S
C1426      C1430   1.452       .  S
C1427      N1434   1.157       .  T
C1428      N1435   1.157       .  T
C1429      N1433   1.157       .  T
C1430      N1436   1.157       .  T
C1431      N1440   1.157       .  T
C1432      N1438   1.157       .  T
N1441      C1445   1.359       .  A
N1441      C1442   1.358       .  A
N1441      C2857   1.459       .  S
C1442      C1443   1.379       .  A
C1442      C2829   1.474       .  S
C1443      C1444   1.370       .  A
C1443      H1446   1.080       .  S
C1444      C1445   1.381       .  A
C1444      H1447   1.082       .  S
C1445      C2801   1.474       .  S
N1448      C1452   1.374       .  A
N1448      C1449   1.373       .  A
N1448      C2864   1.459       .  S
C1449      C1450   1.380       .  A
C1449      C2780   1.505       .  S
C1450      C1451   1.365       .  A
C1450      H1453   1.082       .  S
C1451      C1452   1.382       .  A
C1451      H1454   1.081       .  S
C1452      C2745   1.506       .  S
N1455      C1459   1.361       .  A
N1455      C1456   1.362       .  A
N1455      C2717   1.452       .  S
C1456      C1457   1.382       .  A
C1456      C2661   1.494       .  S
C1457      C1458   1.373       .  A
C1457      H1460   1.081       .  S
C1458      C1459   1.381       .  A
C1458      H1461   1.081       .  S
C1459      C2689   1.489       .  S
N1462      C1466   1.368       .  A
N1462      C1463   1.368       .  A
N1462      C2724   1.453       .  S
C1463      C1464   1.378       .  A
C1463      C2605   1.496       .  S
C1464      C1465   1.364       .  A
C1464      H1467   1.080       .  S
C1465      C1466   1.379       .  A
C1465      H1468   1.077       .  S
C1466      C2633   1.500       .  S
O1469     Ni1475   1.932       .  S
O1469      C1490   1.274       .  A
O1470     Ni1493   1.892       .  S
O1470      C1479   1.264       .  A
O1471     Ni1475   1.908       .  S
O1471     Ni1493   1.892       .  S
O1471     Ni1487   1.894       .  S
O1471      H1494   0.966       .  S
C1472      C2668   1.471       .  S
C1472      O1489   1.265       .  A
C1472      O1481   1.269       .  A
O1473     Ni1492   1.915       .  S
O1473      C1479   1.269       .  A
O1474     Ni1492   1.901       .  S
O1474      C1476   1.270       .  A
Ni1475     O1478   1.920       .  S
Ni1475     O1480   1.931       .  S
C1476      C2773   1.522       .  S
C1476      O1486   1.283       .  A
O1477     Ni1493   1.907       .  S
O1477      C1483   1.274       .  A
O1478      C1483   1.277       .  A
O1480      C1482   1.273       .  A
O1481     Ni1492   1.927       .  S
C1482      C2577   1.508       .  S
C1482      O1488   1.271       .  A
C1483      C2549   1.486       .  S
H1484      O1485   0.966       .  S
O1485     Ni1493   1.922       .  S
O1485     Ni1487   1.906       .  S
O1485     Ni1492   1.915       .  S
O1486     Ni1487   1.967       .  S
Ni1487     O1491   1.893       .  S
Ni1487     O1489   1.898       .  S
O1488     Ni1493   1.927       .  S
C1490      C1516   1.462       .  S
C1490      O1491   1.267       .  A
O1495     Ni1501   1.923       .  S
O1495      C1516   1.269       .  A
O1496     Ni1519   1.891       .  S
O1496      C1505   1.264       .  A
O1497     Ni1501   1.919       .  S
O1497     Ni1519   1.903       .  S
O1497     Ni1513   1.907       .  S
O1497      H1520   0.966       .  S
C1498      C2528   1.474       .  S
C1498      O1515   1.269       .  A
C1498      O1507   1.274       .  A
O1499     Ni1518   1.929       .  S
O1499      C1505   1.271       .  A
O1500     Ni1518   1.906       .  S
O1500      C1502   1.268       .  A
Ni1501     O1504   1.912       .  S
Ni1501     O1506   1.908       .  S
C1502      C2493   1.504       .  S
C1502      O1512   1.274       .  A
O1503     Ni1519   1.907       .  S
O1503      C1509   1.271       .  A
O1504      C1509   1.273       .  A
O1506      C1508   1.269       .  A
O1507     Ni1518   1.930       .  S
C1508      C2612   1.515       .  S
C1508      O1514   1.274       .  A
C1509      C2808   1.484       .  S
H1510      O1511   0.966       .  S
O1511     Ni1519   1.908       .  S
O1511     Ni1513   1.909       .  S
O1511     Ni1518   1.918       .  S
O1512     Ni1513   1.944       .  S
Ni1513     O1517   1.901       .  S
Ni1513     O1515   1.891       .  S
O1514     Ni1519   1.941       .  S
C1516      O1517   1.264       .  A
N1521      C1525   1.369       .  A
N1521      C1522   1.368       .  A
N1521      C2465   1.453       .  S
C1522      C1523   1.381       .  A
C1522      C2500   1.501       .  S
C1523      C1524   1.365       .  A
C1523      H1526   1.080       .  S
C1524      C1525   1.381       .  A
C1524      H1527   1.082       .  S
C1525      C2437   1.498       .  S
N1528      C1532   1.358       .  A
N1528      C1529   1.357       .  A
N1528      C2472   1.455       .  S
C1529      C1530   1.383   1_556  A
C1529      C2556   1.480       .  S
C1530      C1531   1.374       .  A
C1530      H1533   1.082       .  S
C1531      C1532   1.381   1_554  A
C1531      H1534   1.082       .  S
C1532      C2409   1.480       .  S
O1535     Ni1541   1.927       .  S
O1535      C1556   1.270       .  A
O1536     Ni1559   1.885       .  S
O1536      C1545   1.263       .  A
O1537     Ni1541   1.920       .  S
O1537     Ni1559   1.903       .  S
O1537     Ni1553   1.904       .  S
O1537      H1560   0.966       .  S
C1538      C2416   1.472       .  S
C1538      O1555   1.268       .  A
C1538      O1547   1.275       .  A
O1539     Ni1558   1.937       .  S
O1539      C1545   1.274       .  A
O1540     Ni1558   1.919       .  S
O1540      C1542   1.272       .  A
Ni1541     O1544   1.921       .  S
Ni1541     O1546   1.919       .  S
C1542      C2381   1.529       .  S
C1542      O1552   1.278       .  A
O1543     Ni1559   1.903       .  S
O1543      C1549   1.272       .  A
O1544      C1549   1.275       .  A
C1545      C1571   1.462       .  S
O1546      C1548   1.270       .  A
O1547     Ni1558   1.932       .  S
C1548      C2360   1.496       .  S
C1548      O1554   1.271       .  A
C1549      C2696   1.480       .  S
H1550      O1551   0.966       .  S
O1551     Ni1559   1.906       .  S
O1551     Ni1553   1.904       .  S
O1551     Ni1558   1.916       .  S
O1552     Ni1553   1.956       .  S
Ni1553     O1557   1.897       .  S
Ni1553     O1555   1.889       .  S
O1554     Ni1559   1.933       .  S
C1556      O1557   1.266       .  A
O1561     Ni1567   1.923       .  S
O1561      C1582   1.270       .  A
O1562     Ni1585   1.894       .  S
O1562      C1571   1.264       .  A
O1563     Ni1567   1.918       .  S
O1563     Ni1585   1.901       .  S
O1563     Ni1579   1.908       .  S
O1563      H1586   0.966       .  S
C1564      C2304   1.470       .  S
C1564      O1581   1.271       .  A
C1564      O1573   1.276       .  A
O1565     Ni1584   1.932       .  S
O1565      C1571   1.272       .  A
O1566     Ni1584   1.907       .  S
O1566      C1568   1.269       .  A
Ni1567     O1570   1.923       .  S
Ni1567     O1572   1.925       .  S
C1568      C2640   1.510       .  S
C1568      O1578   1.276       .  A
O1569     Ni1585   1.903       .  S
O1569      C1575   1.272       .  A
O1570      C1575   1.275       .  A
O1572      C1574   1.271       .  A
O1573     Ni1584   1.926       .  S
C1574      C2444   1.497       .  S
C1574      O1580   1.270       .  A
C1575      C2332   1.499       .  S
H1576      O1577   0.966       .  S
O1577     Ni1585   1.904       .  S
O1577     Ni1579   1.904       .  S
O1577     Ni1584   1.907       .  S
O1578     Ni1579   1.948       .  S
Ni1579     O1583   1.901       .  S
Ni1579     O1581   1.892       .  S
O1580     Ni1585   1.923       .  S
C1582      O1583   1.266       .  A
N1587      C1591   1.361       .  A
N1587      C1588   1.358       .  A
N1587      C2269   1.459       .  S
C1588      C1589   1.380       .  A
C1588      C2297   1.475       .  S
C1589      C1590   1.371       .  A
C1589      H1592   1.081       .  S
C1590      C1591   1.382       .  A
C1590      H1593   1.082       .  S
C1591      C2248   1.483       .  S
N1594      C1598   1.373       .  A
N1594      C1595   1.372       .  A
N1594      C2276   1.456       .  S
C1595      C1596   1.380       .  A
C1595      C2353   1.502       .  S
C1596      C1597   1.364       .  A
C1596      H1599   1.081       .  S
C1597      C1598   1.381       .  A
C1597      H1600   1.081       .  S
C1598      C2213   1.506       .  S
N1601      C1605   1.369       .  A
N1601      C1602   1.372   1_545  A
N1601      C2192   1.454       .  S
C1602      C1603   1.382   1_565  A
C1602      C2388   1.508       .  S
C1603      C1604   1.366       .  A
C1603      H1606   1.081   1_545  S
C1604      C1605   1.378       .  A
C1604      H1607   1.080       .  S
C1605      C2157   1.499       .  S
N1608      C1612   1.358       .  A
N1608      C1609   1.360   1_545  A
N1608      C2185   1.451       .  S
C1609      C1610   1.382       .  A
C1609      C2325   1.490       .  S
C1610      C1611   1.376   1_565  A
C1610      H1613   1.081       .  S
C1611      C1612   1.380       .  A
C1611      H1614   1.079       .  S
C1612      C2136   1.486       .  S
O1615     Ni1621   1.920       .  S
O1615      C1636   1.269       .  A
O1616     Ni1639   1.894       .  S
O1616      C1625   1.264       .  A
O1617     Ni1621   1.919       .  S
O1617     Ni1639   1.900       .  S
O1617     Ni1633   1.906       .  S
O1617      H1640   0.966       .  S
C1618      C2101   1.481       .  S
C1618      O1635   1.270       .  A
C1618      O1627   1.276       .  A
O1619     Ni1638   1.941       .  S
O1619      C1625   1.274       .  A
O1620     Ni1638   1.913       .  S
O1620      C1622   1.271       .  A
Ni1621     O1624   1.917       .  S
Ni1621     O1626   1.922       .  S
C1622      C2220   1.525       .  S
C1622      O1632   1.278       .  A
O1623     Ni1639   1.902       .  S
O1623      C1629   1.272       .  A
O1624      C1629   1.274       .  A
O1626      C1628   1.271       .  A
O1627     Ni1638   1.934       .  S
C1628      C2164   1.498       .  S
C1628      O1634   1.270       .  A
C1629      C2073   1.482       .  S
H1630      O1631   0.966       .  S
O1631     Ni1639   1.908       .  S
O1631     Ni1633   1.911       .  S
O1631     Ni1638   1.913       .  S
O1632     Ni1633   1.956       .  S
Ni1633     O1637   1.908       .  S
Ni1633     O1635   1.897       .  S
O1634     Ni1639   1.924       .  S
C1636      C1662   1.466       .  S
C1636      O1637   1.269       .  A
O1641     Ni1647   1.926       .  S
O1641      C1662   1.270       .  A
O1642     Ni1665   1.888       .  S
O1642      C1651   1.264       .  A
O1643     Ni1647   1.910       .  S
O1643     Ni1665   1.902       .  S
O1643     Ni1659   1.914       .  S
O1643      H1666   0.966       .  S
C1644      C2129   1.486       .  S
C1644      O1661   1.275       .  A
C1644      O1653   1.277       .  A
O1645     Ni1664   1.936       .  S
O1645      C1651   1.274       .  A
O1646     Ni1664   1.908       .  S
O1646      C1648   1.270       .  A
Ni1647     O1650   1.920       .  S
Ni1647     O1652   1.919       .  S
C1648      C2017   1.503       .  S
C1648      O1658   1.277       .  A
O1649     Ni1665   1.913       .  S
O1649      C1655   1.273       .  A
O1650      C1655   1.275       .  A
O1652      C1654   1.271       .  A
O1653     Ni1664   1.931       .  S
C1654      C2052   1.497       .  S
C1654      O1660   1.273       .  A
C1655      C2241   1.494       .  S
H1656      O1657   0.968       .  S
O1657     Ni1665   1.906       .  S
O1657     Ni1659   1.903       .  S
O1657     Ni1664   1.906       .  S
O1658     Ni1659   1.951       .  S
Ni1659     O1663   1.908       .  S
Ni1659     O1661   1.910       .  S
O1660     Ni1665   1.932       .  S
C1662      O1663   1.270       .  A
N1667      C1671   1.370       .  A
N1667      C1668   1.368       .  A
N1667      C1996   1.455       .  S
C1668      C1669   1.380       .  A
C1668      C1968   1.497       .  S
C1669      C1670   1.365       .  A
C1669      H1672   1.082       .  S
C1670      C1671   1.382       .  A
C1670      H1673   1.081       .  S
C1671      C2024   1.502       .  S
N1674      C1678   1.359       .  A
N1674      C1675   1.358       .  A
N1674      C1989   1.455       .  S
C1675      C1676   1.381   1_556  A
C1675      C2080   1.480       .  S
C1676      C1677   1.371       .  A
C1676      H1679   1.082       .  S
C1677      C1678   1.381   1_554  A
C1677      H1680   1.080       .  S
C1678      C1933   1.483       .  S
N1681      C1685   1.373   1_565  A
N1681      C1682   1.374       .  A
N1681      C1912   1.457       .  S
C1682      C1683   1.382       .  A
C1682      C2584   1.506       .  S
C1683      C1684   1.366   1_565  A
C1683      H1686   1.082       .  S
C1684      C1685   1.380       .  A
C1684      H1687   1.082       .  S
C1685      C1877   1.508       .  S
N1688      C1692   1.355       .  A
N1688      C1689   1.359   1_565  A
N1688      C1905   1.453       .  S
C1689      C1690   1.383   1_545  A
C1689      C1849   1.482       .  S
C1690      C1691   1.373       .  A
C1690      H1693   1.081   1_565  S
C1691      C1692   1.378       .  A
C1691      H1694   1.080       .  S
C1692      C2521   1.478       .  S
N1695      C1699   1.361       .  A
N1695      C1696   1.362       .  A
N1695      C1821   1.455       .  S
C1696      C1697   1.381       .  A
C1696      C2108   1.487       .  S
C1697      C1698   1.369       .  A
C1697      H1700   1.080       .  S
C1698      C1699   1.379       .  A
C1698      H1701   1.079       .  S
C1699      C1800   1.487       .  S
N1702      C1706   1.372       .  A
N1702      C1703   1.369       .  A
N1702      C1828   1.453       .  S
C1703      C1704   1.381       .  A
C1703      C1772   1.501       .  S
C1704      C1705   1.367       .  A
C1704      H1707   1.081       .  S
C1705      C1706   1.380       .  A
C1705      H1708   1.082       .  S
C1706      C2045   1.506       .  S
O1709     Ni1715   1.919       .  S
O1709      C1730   1.268   1_556  A
O1710     Ni1733   1.889       .  S
O1710      C1719   1.262       .  A
O1711     Ni1715   1.922       .  S
O1711     Ni1733   1.899       .  S
O1711     Ni1727   1.900       .  S
O1711      H1734   0.966       .  S
C1712      C1940   1.476       .  S
C1712      O1729   1.268       .  A
C1712      O1721   1.273       .  A
O1713     Ni1732   1.928       .  S
O1713      C1719   1.271       .  A
O1714     Ni1732   1.903       .  S
O1714      C1716   1.267       .  A
Ni1715     O1718   1.918       .  S
Ni1715     O1720   1.922       .  S
C1716      C1884   1.527       .  S
C1716      O1726   1.282       .  A
O1717     Ni1733   1.897       .  S
O1717      C1723   1.270       .  A
O1718      C1723   1.274       .  A
C1719      C1745   1.461       .  S
O1720      C1722   1.270       .  A
O1721     Ni1732   1.932       .  S
C1722      C2752   1.507       .  S
C1722      O1728   1.273       .  A
C1723      C1793   1.471       .  S
H1724      O1725   0.966       .  S
O1725     Ni1733   1.912       .  S
O1725     Ni1727   1.913       .  S
O1725     Ni1732   1.915       .  S
O1726     Ni1727   1.973       .  S
Ni1727     O1731   1.905       .  S
Ni1727     O1729   1.893       .  S
O1728     Ni1733   1.939       .  S
C1730      O1731   1.270   1_554  A
O1735     Ni1741   1.921       .  S
O1735      C1756   1.268       .  A
O1736     Ni1759   1.886       .  S
O1736      C1745   1.262       .  A
O1737     Ni1741   1.919       .  S
O1737     Ni1759   1.904       .  S
O1737     Ni1753   1.902       .  S
O1737      H1760   0.966       .  S
C1738      C2836   1.456       .  S
C1738      O1755   1.269       .  A
C1738      O1747   1.274       .  A
O1739     Ni1758   1.933       .  S
O1739      C1745   1.272       .  A
O1740     Ni1758   1.911       .  S
O1740      C1742   1.272       .  A
Ni1741     O1744   1.915       .  S
Ni1741     O1746   1.922       .  S
C1742      C1765   1.504       .  S
C1742      O1752   1.277       .  A
O1743     Ni1759   1.904       .  S
O1743      C1749   1.272       .  A
O1744      C1749   1.274       .  A
O1746      C1748   1.270       .  A
O1747     Ni1758   1.919       .  S
C1748      C1961   1.493       .  S
C1748      O1754   1.266       .  A
C1749      C1856   1.489       .  S
H1750      O1751   0.966       .  S
O1751     Ni1759   1.900       .  S
O1751     Ni1753   1.904       .  S
O1751     Ni1758   1.907       .  S
O1752     Ni1753   1.948       .  S
Ni1753     O1757   1.904       .  S
Ni1753     O1755   1.887       .  S
O1754     Ni1759   1.916       .  S
C1756      O1757   1.267       .  A
C1761      C1762   1.410       .  A
C1761      C1766   1.413       .  A
C1761      C1779   1.451       .  S
C1762      C1763   1.413       .  A
C1762      C1767   1.509       .  S
C1763      C1764   1.419       .  A
C1763      C1768   1.449       .  S
C1764      C1765   1.418       .  A
C1764      C1780   1.450       .  S
C1765      C1766   1.422       .  A
C1766      C1769   1.453       .  S
C1767      C1770   1.414       .  A
C1767      C1774   1.410       .  A
C1768      N1785   1.157       .  T
C1769      N1787   1.158       .  T
C1770      C1771   1.419       .  A
C1770      C1775   1.450       .  S
C1771      C1772   1.415       .  A
C1771      C1777   1.447       .  S
C1772      C1773   1.419       .  A
C1773      C1774   1.412       .  A
C1773      C1776   1.452       .  S
C1774      C1778   1.451       .  S
C1775      N1782   1.157       .  T
C1776      N1783   1.157       .  T
C1777      N1781   1.157       .  T
C1778      N1784   1.157       .  T
C1779      N1788   1.157       .  T
C1780      N1786   1.157       .  T
C1789      C1790   1.410       .  A
C1789      C1794   1.405       .  A
C1789      C1807   1.452       .  S
C1790      C1791   1.412       .  A
C1790      C1795   1.487       .  S
C1791      C1792   1.406       .  A
C1791      C1796   1.451       .  S
C1792      C1793   1.410       .  A
C1792      C1808   1.452       .  S
C1793      C1794   1.413       .  A
C1794      C1797   1.453       .  S
C1795      C1798   1.410       .  A
C1795      C1802   1.409       .  A
C1796      N1813   1.157       .  T
C1797      N1815   1.158       .  T
C1798      C1799   1.407       .  A
C1798      C1803   1.451       .  S
C1799      C1800   1.413       .  A
C1799      C1805   1.448       .  S
C1800      C1801   1.418       .  A
C1801      C1802   1.405       .  A
C1801      C1804   1.452       .  S
C1802      C1806   1.453       .  S
C1803      N1810   1.157       .  T
C1804      N1811   1.157       .  T
C1805      N1809   1.157       .  T
C1806      N1812   1.157       .  T
C1807      N1816   1.157       .  T
C1808      N1814   1.157       .  T
C1817      C1818   1.411       .  A
C1817      C1822   1.411       .  A
C1817      C1835   1.452       .  S
C1818      C1819   1.411       .  A
C1819      C1820   1.412       .  A
C1819      C1824   1.451       .  S
C1820      C1821   1.417       .  A
C1820      C1836   1.448       .  S
C1821      C1822   1.416       .  A
C1822      C1825   1.447       .  S
C1823      C1826   1.413       .  A
C1823      C1830   1.411       .  A
C1824      N1841   1.157       .  T
C1825      N1843   1.157       .  T
C1826      C1827   1.415       .  A
C1826      C1831   1.451       .  S
C1827      C1828   1.415       .  A
C1827      C1833   1.446       .  S
C1828      C1829   1.415       .  A
C1829      C1830   1.412       .  A
C1829      C1832   1.447       .  S
C1830      C1834   1.451       .  S
C1832      N1839   1.157       .  T
C1833      N1837   1.157       .  T
C1835      N1844   1.157       .  T
C1836      N1842   1.157       .  T
C1845      C1846   1.408       .  A
C1845      C1850   1.405       .  A
C1845      C1863   1.451       .  S
C1846      C1847   1.409       .  A
C1846      C1851   1.485       .  S
C1847      C1848   1.405       .  A
C1847      C1852   1.452       .  S
C1848      C1849   1.416       .  A
C1848      C1864   1.452       .  S
C1849      C1850   1.411       .  A
C1850      C1853   1.448       .  S
C1851      C1854   1.407       .  A
C1851      C1858   1.408       .  A
C1852      N1869   1.157       .  T
C1853      N1871   1.157       .  T
C1854      C1855   1.406       .  A
C1854      C1859   1.452       .  S
C1855      C1856   1.422       .  A
C1855      C1861   1.453       .  S
C1856      C1857   1.421       .  A
C1857      C1858   1.406       .  A
C1857      C1860   1.452       .  S
C1858      C1862   1.453       .  S
C1859      N1866   1.157       .  T
C1860      N1867   1.158       .  T
C1861      N1865   1.158       .  T
C1862      N1868   1.157       .  T
C1863      N1872   1.157       .  T
C1864      N1870   1.157       .  T
C1873      C1874   1.413       .  A
C1873      C1878   1.419       .  A
C1873      C1891   1.450       .  S
C1874      C1875   1.410       .  A
C1874      C1879   1.512       .  S
C1875      C1876   1.414       .  A
C1875      C1880   1.451       .  S
C1876      C1877   1.422       .  A
C1876      C1892   1.452       .  S
C1877      C1878   1.416       .  A
C1878      C1881   1.448       .  S
C1879      C1882   1.408       .  A
C1879      C1886   1.410       .  A
C1880      N1897   1.157       .  T
C1881      N1899   1.157       .  T
C1882      C1883   1.414       .  A
C1882      C1887   1.455       .  S
C1883      C1884   1.433       .  A
C1883      C1889   1.453       .  S
C1884      C1885   1.428       .  A
C1885      C1886   1.423       .  A
C1885      C1888   1.450       .  S
C1886      C1890   1.450       .  S
C1887      N1894   1.157       .  T
C1888      N1895   1.158   1_556  T
C1889      N1893   1.158       .  T
C1890      N1896   1.157   1_556  T
C1891      N1900   1.157       .  T
C1892      N1898   1.158       .  T
C1901      C1902   1.411   1_545  A
C1901      C1906   1.412       .  A
C1901      C1919   1.451       .  S
C1902      C1903   1.410       .  A
C1903      C1904   1.410       .  A
C1903      C1908   1.452       .  S
C1904      C1905   1.416       .  A
C1904      C1920   1.446       .  S
C1905      C1906   1.415   1_565  A
C1906      C1909   1.447       .  S
C1907      C1910   1.411       .  A
C1907      C1914   1.410   1_565  A
C1908      N1925   1.157       .  T
C1909      N1927   1.157       .  T
C1910      C1911   1.415       .  A
C1910      C1915   1.452       .  S
C1911      C1912   1.417   1_554  A
C1911      C1917   1.446   1_554  S
C1912      C1913   1.417   1_556  A
C1913      C1914   1.412   1_565  A
C1913      C1916   1.447   1_564  S
C1914      C1918   1.451       .  S
C1915      N1922   1.157       .  T
C1916      N1923   1.157       .  T
C1917      N1921   1.157       .  T
C1918      N1924   1.157       .  T
C1919      N1928   1.157       .  T
C1920      N1926   1.157       .  T
C1929      C1930   1.407       .  A
C1929      C1934   1.408       .  A
C1929      C1947   1.450       .  S
C1930      C1931   1.409       .  A
C1930      C1935   1.485       .  S
C1931      C1932   1.405       .  A
C1931      C1936   1.452       .  S
C1932      C1933   1.414       .  A
C1932      C1948   1.451   1_556  S
C1933      C1934   1.413       .  A
C1934      C1937   1.448       .  S
C1935      C1938   1.409       .  A
C1935      C1942   1.409       .  A
C1936      N1953   1.157       .  T
C1937      N1955   1.157       .  T
C1938      C1939   1.407       .  A
C1938      C1943   1.450   1_556  S
C1939      C1940   1.412       .  A
C1939      C1945   1.451   1_556  S
C1940      C1941   1.416       .  A
C1941      C1942   1.406       .  A
C1941      C1944   1.453       .  S
C1942      C1946   1.453       .  S
C1943      N1950   1.157       .  T
C1944      N1951   1.158       .  T
C1945      N1949   1.157       .  T
C1946      N1952   1.158       .  T
C1947      N1956   1.157       .  T
C1948      N1954   1.157       .  T
C1957      C1958   1.412       .  A
C1957      C1962   1.411       .  A
C1957      C1975   1.452       .  S
C1958      C1959   1.409       .  A
C1958      C1963   1.498       .  S
C1959      C1960   1.414       .  A
C1959      C1964   1.450       .  S
C1960      C1961   1.420       .  A
C1960      C1976   1.451       .  S
C1961      C1962   1.415       .  A
C1962      C1965   1.451       .  S
C1963      C1966   1.411       .  A
C1963      C1970   1.407       .  A
C1964      N1981   1.157       .  T
C1965      N1983   1.157       .  T
C1966      C1967   1.416       .  A
C1966      C1971   1.449       .  S
C1967      C1968   1.416       .  A
C1967      C1973   1.448       .  S
C1968      C1969   1.420       .  A
C1969      C1970   1.407       .  A
C1969      C1972   1.453       .  S
C1970      C1974   1.452       .  S
C1971      N1978   1.157       .  T
C1972      N1979   1.157       .  T
C1973      N1977   1.157       .  T
C1974      N1980   1.157       .  T
C1975      N1984   1.157       .  T
C1976      N1982   1.158       .  T
C1985      C1986   1.409       .  A
C1985      C1990   1.412       .  A
C1985      C2003   1.451       .  S
C1986      C1987   1.411       .  A
C1986      C1991   1.502       .  S
C1987      C1988   1.414       .  A
C1987      C1992   1.451       .  S
C1988      C1989   1.416       .  A
C1988      C2004   1.447       .  S
C1989      C1990   1.417       .  A
C1990      C1993   1.447       .  S
C1991      C1994   1.411       .  A
C1991      C1998   1.408       .  A
C1992      N2009   1.157       .  T
C1993      N2011   1.157       .  T
C1994      C1995   1.413       .  A
C1994      C1999   1.451       .  S
C1995      C1996   1.417       .  A
C1995      C2001   1.447       .  S
C1996      C1997   1.418       .  A
C1997      C1998   1.411       .  A
C1997      C2000   1.447       .  S
C1998      C2002   1.451       .  S
C1999      N2006   1.157       .  T
C2000      N2007   1.157       .  T
C2001      N2005   1.157       .  T
C2002      N2008   1.157       .  T
C2003      N2012   1.157       .  T
C2004      N2010   1.157       .  T
C2013      C2014   1.412       .  A
C2013      C2018   1.418       .  A
C2013      C2031   1.450       .  S
C2014      C2015   1.410       .  A
C2014      C2019   1.506       .  S
C2015      C2016   1.412       .  A
C2015      C2020   1.452       .  S
C2016      C2017   1.422       .  A
C2016      C2032   1.452       .  S
C2017      C2018   1.418       .  A
C2018      C2021   1.450       .  S
C2019      C2022   1.409       .  A
C2019      C2026   1.413       .  A
C2020      N2037   1.157       .  T
C2021      N2039   1.157       .  T
C2022      C2023   1.411       .  A
C2022      C2027   1.452       .  S
C2023      C2024   1.421       .  A
C2023      C2029   1.452       .  S
C2024      C2025   1.415       .  A
C2025      C2026   1.418       .  A
C2025      C2028   1.448       .  S
C2026      C2030   1.450       .  S
C2027      N2034   1.157       .  T
C2028      N2035   1.157       .  T
C2029      N2033   1.157       .  T
C2030      N2036   1.157       .  T
C2031      N2040   1.157       .  T
C2032      N2038   1.158       .  T
C2041      C2042   1.412       .  A
C2041      C2046   1.420   1_655  A
C2041      C2059   1.450       .  S
C2042      C2043   1.409       .  A
C2042      C2047   1.509       .  S
C2043      C2044   1.413   1_655  A
C2043      C2048   1.452       .  S
C2044      C2045   1.421       .  A
C2044      C2060   1.451       .  S
C2045      C2046   1.417       .  A
C2046      C2049   1.448       .  S
C2047      C2050   1.413       .  A
C2047      C2054   1.412       .  A
C2048      N2065   1.157       .  T
C2049      N2067   1.157       .  T
C2050      C2051   1.415       .  A
C2050      C2055   1.449       .  S
C2051      C2052   1.416       .  A
C2051      C2057   1.451       .  S
C2052      C2053   1.418       .  A
C2053      C2054   1.416       .  A
C2053      C2056   1.451       .  S
C2054      C2058   1.450       .  S
C2055      N2062   1.157       .  T
C2056      N2063   1.158       .  T
C2057      N2061   1.157       .  T
C2058      N2064   1.157       .  T
C2059      N2068   1.157       .  T
C2060      N2066   1.157       .  T
C2069      C2070   1.407       .  A
C2069      C2074   1.407       .  A
C2069      C2087   1.451       .  S
C2070      C2071   1.406       .  A
C2070      C2075   1.483       .  S
C2071      C2072   1.404       .  A
C2071      C2076   1.452       .  S
C2072      C2073   1.419       .  A
C2072      C2088   1.453       .  S
C2073      C2074   1.418       .  A
C2074      C2077   1.452       .  S
C2075      C2078   1.406       .  A
C2075      C2082   1.409       .  A
C2076      N2093   1.157       .  T
C2077      N2095   1.158       .  T
C2078      C2079   1.403       .  A
C2078      C2083   1.452       .  S
C2079      C2080   1.416       .  A
C2079      C2085   1.452   1_556  S
C2080      C2081   1.412       .  A
C2081      C2082   1.407       .  A
C2081      C2084   1.449       .  S
C2082      C2086   1.451       .  S
C2083      N2090   1.157   1_556  T
C2084      N2091   1.157       .  T
C2085      N2089   1.157       .  T
C2086      N2092   1.157       .  T
C2087      N2096   1.157       .  T
C2088      N2094   1.158       .  T
C2097      C2098   1.410       .  A
C2097      C2102   1.409       .  A
C2097      C2115   1.450       .  S
C2098      C2099   1.409       .  A
C2098      C2103   1.488       .  S
C2099      C2100   1.406       .  A
C2099      C2104   1.452       .  S
C2100      C2101   1.416       .  A
C2100      C2116   1.452       .  S
C2101      C2102   1.415       .  A
C2102      C2105   1.451       .  S
C2103      C2106   1.408       .  A
C2103      C2110   1.408       .  A
C2104      N2121   1.157       .  T
C2105      N2123   1.157       .  T
C2106      C2107   1.409   1_655  A
C2106      C2111   1.450       .  S
C2107      C2108   1.413       .  A
C2107      C2113   1.449       .  S
C2108      C2109   1.417       .  A
C2109      C2110   1.406   1_455  A
C2109      C2112   1.452       .  S
C2110      C2114   1.452       .  S
C2111      N2118   1.157       .  T
C2112      N2119   1.157       .  T
C2113      N2117   1.157       .  T
C2114      N2120   1.157       .  T
C2115      N2124   1.157       .  T
C2116      N2122   1.157       .  T
C2125      C2126   1.409       .  A
C2125      C2130   1.409       .  A
C2125      C2143   1.452       .  S
C2126      C2127   1.410       .  A
C2126      C2131   1.492       .  S
C2127      C2128   1.410       .  A
C2127      C2132   1.451       .  S
C2128      C2129   1.416       .  A
C2128      C2144   1.451       .  S
C2129      C2130   1.417       .  A
C2130      C2133   1.452       .  S
C2131      C2134   1.409       .  A
C2131      C2138   1.410       .  A
C2132      N2149   1.157       .  T
C2133      N2151   1.157       .  T
C2134      C2135   1.408       .  A
C2134      C2139   1.451       .  S
C2135      C2136   1.415       .  A
C2135      C2141   1.451       .  S
C2136      C2137   1.411       .  A
C2137      C2138   1.410       .  A
C2137      C2140   1.449       .  S
C2138      C2142   1.450       .  S
C2139      N2146   1.157       .  T
C2140      N2147   1.157       .  T
C2141      N2145   1.157       .  T
C2142      N2148   1.157       .  T
C2143      N2152   1.157       .  T
C2144      N2150   1.157       .  T
C2153      C2154   1.409       .  A
C2153      C2158   1.410       .  A
C2153      C2171   1.452       .  S
C2154      C2155   1.413       .  A
C2154      C2159   1.505       .  S
C2155      C2156   1.419       .  A
C2155      C2160   1.449       .  S
C2156      C2157   1.414       .  A
C2156      C2172   1.448       .  S
C2157      C2158   1.420       .  A
C2158      C2161   1.452       .  S
C2159      C2162   1.409       .  A
C2159      C2166   1.413       .  A
C2160      N2177   1.157       .  T
C2161      N2179   1.157       .  T
C2162      C2163   1.415       .  A
C2162      C2167   1.450       .  S
C2163      C2164   1.421       .  A
C2163      C2169   1.451       .  S
C2164      C2165   1.416       .  A
C2165      C2166   1.414       .  A
C2165      C2168   1.451       .  S
C2166      C2170   1.450       .  S
C2167      N2174   1.157       .  T
C2168      N2175   1.158       .  T
C2169      N2173   1.157       .  T
C2170      N2176   1.157       .  T
C2171      N2180   1.157       .  T
C2172      N2178   1.157       .  T
C2181      C2182   1.410       .  A
C2181      C2186   1.410       .  A
C2181      C2199   1.452       .  S
C2182      C2183   1.410   1_545  A
C2183      C2184   1.410   1_565  A
C2183      C2188   1.451       .  S
C2184      C2185   1.415       .  A
C2184      C2200   1.448   1_545  S
C2185      C2186   1.415       .  A
C2186      C2189   1.447       .  S
C2187      C2190   1.410   1_545  A
C2187      C2194   1.411       .  A
C2188      N2205   1.157       .  T
C2189      N2207   1.157       .  T
C2190      C2191   1.410   1_554  A
C2190      C2195   1.451       .  S
C2191      C2192   1.416   1_565  A
C2191      C2197   1.446       .  S
C2192      C2193   1.417       .  A
C2193      C2194   1.412   1_556  A
C2193      C2196   1.446       .  S
C2194      C2198   1.452       .  S
C2196      N2203   1.157       .  T
C2197      N2201   1.157       .  T
C2199      N2208   1.157       .  T
C2200      N2206   1.157       .  T
C2209      C2210   1.413       .  A
C2209      C2214   1.419       .  A
C2209      C2227   1.450       .  S
C2210      C2211   1.408       .  A
C2210      C2215   1.510       .  S
C2211      C2212   1.413       .  A
C2211      C2216   1.451       .  S
C2212      C2213   1.422       .  A
C2212      C2228   1.452       .  S
C2213      C2214   1.416       .  A
C2214      C2217   1.448       .  S
C2215      C2218   1.408       .  A
C2215      C2222   1.408       .  A
C2216      N2233   1.157       .  T
C2217      N2235   1.157       .  T
C2218      C2219   1.416       .  A
C2218      C2223   1.452       .  S
C2219      C2220   1.431       .  A
C2219      C2225   1.452       .  S
C2220      C2221   1.429       .  A
C2221      C2222   1.420       .  A
C2221      C2224   1.450       .  S
C2222      C2226   1.451       .  S
C2223      N2230   1.157       .  T
C2224      N2231   1.157       .  T
C2225      N2229   1.158       .  T
C2226      N2232   1.157       .  T
C2227      N2236   1.157       .  T
C2228      N2234   1.157       .  T
C2237      C2238   1.409       .  A
C2237      C2242   1.411       .  A
C2237      C2255   1.452       .  S
C2238      C2239   1.408       .  A
C2238      C2243   1.491       .  S
C2239      C2240   1.407       .  A
C2239      C2244   1.453       .  S
C2240      C2241   1.420       .  A
C2240      C2256   1.452       .  S
C2241      C2242   1.421       .  A
C2242      C2245   1.451       .  S
C2243      C2246   1.410       .  A
C2243      C2250   1.410       .  A
C2244      N2261   1.157       .  T
C2245      N2263   1.158       .  T
C2246      C2247   1.407       .  A
C2246      C2251   1.451       .  S
C2247      C2248   1.411       .  A
C2247      C2253   1.449       .  S
C2248      C2249   1.415       .  A
C2249      C2250   1.408       .  A
C2249      C2252   1.451       .  S
C2250      C2254   1.451       .  S
C2251      N2258   1.157       .  T
C2252      N2259   1.157       .  T
C2253      N2257   1.157       .  T
C2254      N2260   1.157       .  T
C2255      N2264   1.157       .  T
C2256      N2262   1.157       .  T
C2265      C2266   1.411       .  A
C2265      C2270   1.412       .  A
C2265      C2283   1.453       .  S
C2266      C2267   1.410       .  A
C2266      C2271   1.506       .  S
C2267      C2268   1.415       .  A
C2267      C2272   1.450       .  S
C2268      C2269   1.417       .  A
C2268      C2284   1.447       .  S
C2269      C2270   1.418       .  A
C2270      C2273   1.445       .  S
C2271      C2274   1.410       .  A
C2271      C2278   1.412       .  A
C2272      N2289   1.157       .  T
C2273      N2291   1.157       .  T
C2274      C2275   1.409       .  A
C2274      C2279   1.452       .  S
C2275      C2276   1.416       .  A
C2275      C2281   1.446       .  S
C2276      C2277   1.418       .  A
C2277      C2278   1.416       .  A
C2277      C2280   1.446       .  S
C2278      C2282   1.450       .  S
C2279      N2286   1.157       .  T
C2280      N2287   1.157       .  T
C2281      N2285   1.157       .  T
C2282      N2288   1.157       .  T
C2283      N2292   1.157       .  T
C2284      N2290   1.157       .  T
C2293      C2294   1.409       .  A
C2293      C2298   1.406       .  A
C2293      C2311   1.450       .  S
C2294      C2295   1.407       .  A
C2294      C2299   1.481       .  S
C2295      C2296   1.403       .  A
C2295      C2300   1.452       .  S
C2296      C2297   1.414       .  A
C2296      C2312   1.452       .  S
C2297      C2298   1.409       .  A
C2298      C2301   1.449       .  S
C2299      C2302   1.408       .  A
C2299      C2306   1.409       .  A
C2300      N2317   1.157       .  T
C2301      N2319   1.157       .  T
C2302      C2303   1.404       .  A
C2302      C2307   1.452       .  S
C2303      C2304   1.414       .  A
C2303      C2309   1.452       .  S
C2304      C2305   1.411       .  A
C2305      C2306   1.405       .  A
C2305      C2308   1.452       .  S
C2306      C2310   1.449       .  S
C2307      N2314   1.157       .  T
C2308      N2315   1.157       .  T
C2309      N2313   1.157       .  T
C2310      N2316   1.156       .  T
C2311      N2320   1.157       .  T
C2312      N2318   1.157       .  T
C2321      C2322   1.407       .  A
C2321      C2326   1.409       .  A
C2321      C2339   1.451       .  S
C2322      C2323   1.407       .  A
C2322      C2327   1.488       .  S
C2323      C2324   1.406       .  A
C2323      C2328   1.452       .  S
C2324      C2325   1.413       .  A
C2324      C2340   1.448       .  S
C2325      C2326   1.418       .  A
C2326      C2329   1.451       .  S
C2327      C2330   1.406       .  A
C2327      C2334   1.405       .  A
C2328      N2345   1.157       .  T
C2329      N2347   1.157       .  T
C2330      C2331   1.411       .  A
C2330      C2335   1.452       .  S
C2331      C2332   1.425       .  A
C2331      C2337   1.452       .  S
C2332      C2333   1.425       .  A
C2333      C2334   1.406       .  A
C2333      C2336   1.453       .  S
C2334      C2338   1.453       .  S
C2335      N2342   1.157       .  T
C2336      N2343   1.158       .  T
C2337      N2341   1.158       .  T
C2338      N2344   1.157       .  T
C2339      N2348   1.157       .  T
C2340      N2346   1.157       .  T
C2349      C2350   1.414       .  A
C2349      C2354   1.421       .  A
C2349      C2367   1.449       .  S
C2350      C2351   1.409       .  A
C2350      C2355   1.509       .  S
C2351      C2352   1.410       .  A
C2351      C2356   1.451       .  S
C2352      C2353   1.420       .  A
C2352      C2368   1.452       .  S
C2353      C2354   1.415       .  A
C2354      C2357   1.448       .  S
C2355      C2358   1.415       .  A
C2355      C2362   1.412       .  A
C2356      N2373   1.157       .  T
C2357      N2375   1.157       .  T
C2358      C2359   1.416       .  A
C2358      C2363   1.451       .  S
C2359      C2360   1.414       .  A
C2359      C2365   1.451       .  S
C2360      C2361   1.417       .  A
C2361      C2362   1.417       .  A
C2361      C2364   1.451       .  S
C2362      C2366   1.450       .  S
C2363      N2370   1.157       .  T
C2364      N2371   1.157       .  T
C2365      N2369   1.157       .  T
C2366      N2372   1.157       .  T
C2367      N2376   1.157       .  T
C2368      N2374   1.157       .  T
C2377      C2378   1.409       .  A
C2377      C2382   1.418       .  A
C2377      C2395   1.453       .  S
C2378      C2379   1.409       .  A
C2378      C2383   1.513       .  S
C2379      C2380   1.422       .  A
C2379      C2384   1.451       .  S
C2380      C2381   1.430       .  A
C2380      C2396   1.450       .  S
C2381      C2382   1.431       .  A
C2382      C2385   1.452       .  S
C2383      C2386   1.414       .  A
C2383      C2390   1.409       .  A
C2384      N2401   1.157       .  T
C2385      N2403   1.158       .  T
C2386      C2387   1.421       .  A
C2386      C2391   1.449       .  S
C2387      C2388   1.417       .  A
C2387      C2393   1.448       .  S
C2388      C2389   1.422       .  A
C2389      C2390   1.413       .  A
C2389      C2392   1.452       .  S
C2390      C2394   1.451       .  S
C2391      N2398   1.157       .  T
C2392      N2399   1.157       .  T
C2393      N2397   1.157       .  T
C2394      N2400   1.157       .  T
C2395      N2404   1.157       .  T
C2396      N2402   1.158       .  T
C2405      C2406   1.410       .  A
C2405      C2410   1.406       .  A
C2405      C2423   1.451       .  S
C2406      C2407   1.407       .  A
C2406      C2411   1.484       .  S
C2407      C2408   1.405       .  A
C2407      C2412   1.451       .  S
C2408      C2409   1.411       .  A
C2408      C2424   1.449       .  S
C2409      C2410   1.413       .  A
C2410      C2413   1.451       .  S
C2411      C2414   1.409       .  A
C2411      C2418   1.410       .  A
C2412      N2429   1.157       .  T
C2413      N2431   1.157   1_556  T
C2414      C2415   1.405       .  A
C2414      C2419   1.451       .  S
C2415      C2416   1.413       .  A
C2415      C2421   1.452       .  S
C2416      C2417   1.412       .  A
C2417      C2418   1.407       .  A
C2417      C2420   1.451       .  S
C2418      C2422   1.451       .  S
C2419      N2426   1.157       .  T
C2420      N2427   1.157       .  T
C2421      N2425   1.157       .  T
C2422      N2428   1.157   1_556  T
C2423      N2432   1.157       .  T
C2424      N2430   1.157       .  T
C2433      C2434   1.411       .  A
C2433      C2438   1.417       .  A
C2433      C2451   1.450       .  S
C2434      C2435   1.408       .  A
C2434      C2439   1.502       .  S
C2435      C2436   1.409       .  A
C2435      C2440   1.451       .  S
C2436      C2437   1.420       .  A
C2436      C2452   1.453       .  S
C2437      C2438   1.415       .  A
C2438      C2441   1.448       .  S
C2439      C2442   1.413       .  A
C2439      C2446   1.409       .  A
C2440      N2457   1.157       .  T
C2441      N2459   1.157       .  T
C2442      C2443   1.415       .  A
C2442      C2447   1.451       .  S
C2443      C2444   1.416       .  A
C2443      C2449   1.451       .  S
C2444      C2445   1.419       .  A
C2445      C2446   1.413       .  A
C2445      C2448   1.451       .  S
C2446      C2450   1.451       .  S
C2447      N2454   1.157       .  T
C2448      N2455   1.157       .  T
C2449      N2453   1.157       .  T
C2450      N2456   1.157       .  T
C2451      N2460   1.157       .  T
C2452      N2458   1.157       .  T
C2461      C2462   1.412       .  A
C2461      C2466   1.411       .  A
C2461      C2479   1.452       .  S
C2462      C2463   1.412       .  A
C2462      C2467   1.505       .  S
C2463      C2464   1.413       .  A
C2463      C2468   1.451       .  S
C2464      C2465   1.416       .  A
C2464      C2480   1.447       .  S
C2465      C2466   1.415       .  A
C2466      C2469   1.447       .  S
C2467      C2470   1.411       .  A
C2467      C2474   1.412       .  A
C2468      N2485   1.157       .  T
C2469      N2487   1.157       .  T
C2470      C2471   1.411       .  A
C2470      C2475   1.452       .  S
C2471      C2472   1.416       .  A
C2471      C2477   1.447       .  S
C2472      C2473   1.416       .  A
C2473      C2474   1.413       .  A
C2473      C2476   1.446       .  S
C2474      C2478   1.451       .  S
C2475      N2482   1.157       .  T
C2476      N2483   1.157       .  T
C2477      N2481   1.157       .  T
C2478      N2484   1.157       .  T
C2479      N2488   1.157       .  T
C2480      N2486   1.157       .  T
C2489      C2490   1.409       .  A
C2489      C2494   1.417       .  A
C2489      C2507   1.450       .  S
C2490      C2491   1.409       .  A
C2490      C2495   1.501       .  S
C2491      C2492   1.410       .  A
C2491      C2496   1.453       .  S
C2492      C2493   1.423       .  A
C2492      C2508   1.453       .  S
C2493      C2494   1.422       .  A
C2494      C2497   1.451       .  S
C2495      C2498   1.407       .  A
C2495      C2502   1.410       .  A
C2496      N2513   1.157       .  T
C2497      N2515   1.158       .  T
C2498      C2499   1.409       .  A
C2498      C2503   1.452       .  S
C2499      C2500   1.421       .  A
C2499      C2505   1.452       .  S
C2500      C2501   1.417       .  A
C2501      C2502   1.417       .  A
C2501      C2504   1.447       .  S
C2502      C2506   1.450       .  S
C2503      N2510   1.157       .  T
C2504      N2511   1.157       .  T
C2505      N2509   1.157       .  T
C2506      N2512   1.157       .  T
C2507      N2516   1.157       .  T
C2508      N2514   1.158       .  T
C2517      C2518   1.410       .  A
C2517      C2522   1.404       .  A
C2517      C2535   1.451       .  S
C2518      C2519   1.409       .  A
C2518      C2523   1.486       .  S
C2519      C2520   1.408       .  A
C2519      C2524   1.451       .  S
C2520      C2521   1.411       .  A
C2520      C2536   1.449       .  S
C2521      C2522   1.411       .  A
C2522      C2525   1.452       .  S
C2523      C2526   1.410       .  A
C2523      C2530   1.409       .  A
C2524      N2541   1.157       .  T
C2525      N2543   1.157       .  T
C2526      C2527   1.407       .  A
C2526      C2531   1.451       .  S
C2527      C2528   1.414       .  A
C2527      C2533   1.452       .  S
C2528      C2529   1.414       .  A
C2529      C2530   1.405       .  A
C2529      C2532   1.452       .  S
C2530      C2534   1.452       .  S
C2531      N2538   1.157       .  T
C2532      N2539   1.157       .  T
C2533      N2537   1.158       .  T
C2534      N2540   1.157       .  T
C2535      N2544   1.157       .  T
C2536      N2542   1.157       .  T
C2545      C2546   1.407       .  A
C2545      C2550   1.408       .  A
C2545      C2563   1.452       .  S
C2546      C2547   1.408       .  A
C2546      C2551   1.486       .  S
C2547      C2548   1.406       .  A
C2547      C2552   1.451       .  S
C2548      C2549   1.417       .  A
C2548      C2564   1.452       .  S
C2549      C2550   1.421       .  A
C2550      C2553   1.453       .  S
C2551      C2554   1.410       .  A
C2551      C2558   1.408       .  A
C2552      N2569   1.157       .  T
C2553      N2571   1.158       .  T
C2554      C2555   1.409       .  A
C2554      C2559   1.450       .  S
C2555      C2556   1.412       .  A
C2555      C2561   1.449       .  S
C2556      C2557   1.414       .  A
C2557      C2558   1.403       .  A
C2557      C2560   1.452   1_556  S
C2558      C2562   1.452       .  S
C2559      N2566   1.157       .  T
C2560      N2567   1.157       .  T
C2561      N2565   1.157       .  T
C2562      N2568   1.157       .  T
C2563      N2572   1.157       .  T
C2564      N2570   1.157       .  T
C2573      C2574   1.414       .  A
C2573      C2578   1.417       .  A
C2573      C2591   1.446       .  S
C2574      C2575   1.411       .  A
C2574      C2579   1.515       .  S
C2575      C2576   1.419       .  A
C2575      C2580   1.450       .  S
C2576      C2577   1.423       .  A
C2576      C2592   1.451       .  S
C2577      C2578   1.416       .  A
C2578      C2581   1.451       .  S
C2579      C2582   1.416       .  A
C2579      C2586   1.411       .  A
C2580      N2597   1.157       .  T
C2581      N2599   1.158       .  T
C2582      C2583   1.423       .  A
C2582      C2587   1.449       .  S
C2583      C2584   1.414       .  A
C2583      C2589   1.448       .  S
C2584      C2585   1.420       .  A
C2585      C2586   1.413       .  A
C2585      C2588   1.452       .  S
C2586      C2590   1.451       .  S
C2587      N2594   1.157       .  T
C2588      N2595   1.157       .  T
C2589      N2593   1.157       .  T
C2590      N2596   1.157       .  T
C2591      N2600   1.155       .  T
C2592      N2598   1.157       .  T
C2601      C2602   1.410       .  A
C2601      C2606   1.409       .  A
C2601      C2619   1.452       .  S
C2602      C2603   1.412       .  A
C2602      C2607   1.504       .  S
C2603      C2604   1.416       .  A
C2603      C2608   1.450       .  S
C2604      C2605   1.415       .  A
C2604      C2620   1.449       .  S
C2605      C2606   1.419       .  A
C2606      C2609   1.452       .  S
C2607      C2610   1.407       .  A
C2607      C2614   1.409       .  A
C2608      N2625   1.157       .  T
C2609      N2627   1.157       .  T
C2610      C2611   1.417       .  A
C2610      C2615   1.451       .  S
C2611      C2612   1.427       .  A
C2611      C2617   1.449       .  S
C2612      C2613   1.427       .  A
C2613      C2614   1.413       .  A
C2613      C2616   1.452       .  S
C2614      C2618   1.453       .  S
C2615      N2622   1.157       .  T
C2616      N2623   1.158       .  T
C2617      N2621   1.157       .  T
C2618      N2624   1.157       .  T
C2619      N2628   1.157       .  T
C2620      N2626   1.157       .  T
C2629      C2630   1.413       .  A
C2629      C2634   1.419       .  A
C2629      C2647   1.450       .  S
C2630      C2631   1.409       .  A
C2630      C2635   1.506       .  S
C2631      C2632   1.410       .  A
C2631      C2636   1.451       .  S
C2632      C2633   1.420   1_655  A
C2632      C2648   1.452   1_655  S
C2633      C2634   1.415   1_455  A
C2634      C2637   1.448   1_655  S
C2635      C2638   1.408       .  A
C2635      C2642   1.410       .  A
C2636      N2653   1.157       .  T
C2637      N2655   1.157       .  T
C2638      C2639   1.413       .  A
C2638      C2643   1.453       .  S
C2639      C2640   1.426       .  A
C2639      C2645   1.452       .  S
C2640      C2641   1.421       .  A
C2641      C2642   1.419       .  A
C2641      C2644   1.450       .  S
C2642      C2646   1.449       .  S
C2643      N2650   1.157       .  T
C2644      N2651   1.157       .  T
C2645      N2649   1.158       .  T
C2646      N2652   1.157       .  T
C2647      N2656   1.157       .  T
C2648      N2654   1.157       .  T
C2657      C2658   1.408       .  A
C2657      C2662   1.406       .  A
C2657      C2675   1.453       .  S
C2658      C2659   1.407       .  A
C2658      C2663   1.489       .  S
C2659      C2660   1.411       .  A
C2659      C2664   1.450       .  S
C2660      C2661   1.416       .  A
C2660      C2676   1.448       .  S
C2661      C2662   1.418       .  A
C2662      C2665   1.451       .  S
C2663      C2666   1.410       .  A
C2663      C2670   1.412       .  A
C2664      N2681   1.157       .  T
C2665      N2683   1.157       .  T
C2666      C2667   1.405       .  A
C2666      C2671   1.451       .  S
C2667      C2668   1.411       .  A
C2667      C2673   1.453       .  S
C2668      C2669   1.409       .  A
C2669      C2670   1.410       .  A
C2669      C2672   1.451       .  S
C2670      C2674   1.450       .  S
C2671      N2678   1.157       .  T
C2672      N2679   1.157       .  T
C2673      N2677   1.157       .  T
C2674      N2680   1.157       .  T
C2675      N2684   1.157       .  T
C2676      N2682   1.157       .  T
C2685      C2686   1.409       .  A
C2685      C2690   1.409   1_655  A
C2685      C2703   1.451       .  S
C2686      C2687   1.406       .  A
C2686      C2691   1.490       .  S
C2687      C2688   1.406       .  A
C2687      C2692   1.451       .  S
C2688      C2689   1.418   1_655  A
C2688      C2704   1.450       .  S
C2689      C2690   1.413       .  A
C2690      C2693   1.449       .  S
C2691      C2694   1.409       .  A
C2691      C2698   1.411       .  A
C2692      N2709   1.157       .  T
C2693      N2711   1.157       .  T
C2694      C2695   1.408       .  A
C2694      C2699   1.451       .  S
C2695      C2696   1.416       .  A
C2695      C2701   1.452       .  S
C2696      C2697   1.415       .  A
C2697      C2698   1.407       .  A
C2697      C2700   1.452       .  S
C2698      C2702   1.452       .  S
C2699      N2706   1.157       .  T
C2700      N2707   1.157       .  T
C2701      N2705   1.157       .  T
C2702      N2708   1.157       .  T
C2703      N2712   1.157       .  T
C2704      N2710   1.157   1_655  T
C2713      C2714   1.410       .  A
C2713      C2718   1.412       .  A
C2713      C2731   1.451       .  S
C2714      C2715   1.408       .  A
C2715      C2716   1.407       .  A
C2715      C2720   1.452       .  S
C2716      C2717   1.416       .  A
C2716      C2732   1.447       .  S
C2717      C2718   1.417       .  A
C2718      C2721   1.448       .  S
C2719      C2722   1.410       .  A
C2719      C2726   1.413       .  A
C2720      N2737   1.157       .  T
C2721      N2739   1.157       .  T
C2722      C2723   1.411       .  A
C2722      C2727   1.452       .  S
C2723      C2724   1.416       .  A
C2723      C2729   1.446       .  S
C2724      C2725   1.415       .  A
C2725      C2726   1.414       .  A
C2725      C2728   1.447       .  S
C2726      C2730   1.451       .  S
C2727      N2734   1.157       .  T
C2728      N2735   1.157       .  T
C2729      N2733   1.157       .  T
C2730      N2736   1.157       .  T
C2731      N2740   1.157       .  T
C2732      N2738   1.157       .  T
C2741      C2742   1.412       .  A
C2741      C2746   1.413       .  A
C2741      C2759   1.452       .  S
C2742      C2743   1.418       .  A
C2742      C2747   1.517       .  S
C2743      C2744   1.423       .  A
C2743      C2748   1.448       .  S
C2744      C2745   1.413       .  A
C2744      C2760   1.448       .  S
C2745      C2746   1.419       .  A
C2746      C2749   1.452       .  S
C2747      C2750   1.413       .  A
C2747      C2754   1.415       .  A
C2748      N2765   1.157       .  T
C2749      N2767   1.157       .  T
C2750      C2751   1.420       .  A
C2750      C2755   1.450       .  S
C2751      C2752   1.419       .  A
C2751      C2757   1.451       .  S
C2752      C2753   1.417       .  A
C2753      C2754   1.418       .  A
C2753      C2756   1.451       .  S
C2754      C2758   1.450       .  S
C2755      N2762   1.157       .  T
C2756      N2763   1.157       .  T
C2757      N2761   1.157       .  T
C2758      N2764   1.157       .  T
C2759      N2768   1.157       .  T
C2760      N2766   1.157       .  T
C2769      C2770   1.408       .  A
C2769      C2774   1.412       .  A
C2769      C2787   1.453       .  S
C2770      C2771   1.409       .  A
C2770      C2775   1.508       .  S
C2771      C2772   1.420       .  A
C2771      C2776   1.450       .  S
C2772      C2773   1.428       .  A
C2772      C2788   1.450       .  S
C2773      C2774   1.429       .  A
C2774      C2777   1.452       .  S
C2775      C2778   1.413       .  A
C2775      C2782   1.409       .  A
C2776      N2793   1.157       .  T
C2777      N2795   1.157       .  T
C2778      C2779   1.419       .  A
C2778      C2783   1.450       .  S
C2779      C2780   1.416       .  A
C2779      C2785   1.448       .  S
C2780      C2781   1.421       .  A
C2781      C2782   1.412       .  A
C2781      C2784   1.452       .  S
C2782      C2786   1.452       .  S
C2783      N2790   1.157       .  T
C2784      N2791   1.157       .  T
C2785      N2789   1.157       .  T
C2786      N2792   1.157       .  T
C2787      N2796   1.157       .  T
C2788      N2794   1.158       .  T
C2797      C2798   1.412       .  A
C2797      C2802   1.405       .  A
C2797      C2815   1.451       .  S
C2798      C2799   1.411       .  A
C2798      C2803   1.488       .  S
C2799      C2800   1.404       .  A
C2799      C2804   1.452       .  S
C2800      C2801   1.409       .  A
C2800      C2816   1.449       .  S
C2801      C2802   1.412       .  A
C2802      C2805   1.452       .  S
C2803      C2806   1.410       .  A
C2803      C2810   1.410       .  A
C2804      N2821   1.157       .  T
C2805      N2823   1.158       .  T
C2806      C2807   1.404       .  A
C2806      C2811   1.453       .  S
C2807      C2808   1.416       .  A
C2807      C2813   1.452       .  S
C2808      C2809   1.418       .  A
C2809      C2810   1.407       .  A
C2809      C2812   1.450       .  S
C2810      C2814   1.452       .  S
C2811      N2818   1.157       .  T
C2812      N2819   1.157       .  T
C2813      N2817   1.157       .  T
C2814      N2820   1.157       .  T
C2815      N2824   1.157       .  T
C2816      N2822   1.157       .  T
C2825      C2826   1.405       .  A
C2825      C2830   1.403       .  A
C2825      C2843   1.451       .  S
C2826      C2827   1.403       .  A
C2826      C2831   1.473       .  S
C2827      C2828   1.401       .  A
C2827      C2832   1.452       .  S
C2828      C2829   1.416       .  A
C2828      C2844   1.449       .  S
C2829      C2830   1.411       .  A
C2830      C2833   1.448       .  S
C2831      C2834   1.408       .  A
C2831      C2838   1.408       .  A
C2832      N2849   1.157       .  T
C2833      N2851   1.157       .  T
C2834      C2835   1.401       .  A
C2834      C2839   1.452       .  S
C2835      C2836   1.411       .  A
C2835      C2841   1.453       .  S
C2836      C2837   1.408       .  A
C2837      C2838   1.401       .  A
C2837      C2840   1.451       .  S
C2838      C2842   1.451       .  S
C2839      N2846   1.157       .  T
C2840      N2847   1.157       .  T
C2841      N2845   1.157       .  T
C2842      N2848   1.157       .  T
C2843      N2852   1.157       .  T
C2844      N2850   1.156       .  T
C2853      C2854   1.413       .  A
C2853      C2858   1.416       .  A
C2853      C2871   1.451       .  S
C2854      C2855   1.411       .  A
C2854      C2859   1.510       .  S
C2855      C2856   1.414       .  A
C2855      C2860   1.452       .  S
C2856      C2857   1.417       .  A
C2856      C2872   1.446       .  S
C2857      C2858   1.417       .  A
C2858      C2861   1.446       .  S
C2859      C2862   1.410       .  A
C2859      C2866   1.413       .  A
C2860      N2877   1.157       .  T
C2861      N2879   1.157       .  T
C2862      C2863   1.413       .  A
C2862      C2867   1.451       .  S
C2863      C2864   1.418       .  A
C2863      C2869   1.446       .  S
C2864      C2865   1.416       .  A
C2865      C2866   1.415       .  A
C2865      C2868   1.446       .  S
C2866      C2870   1.451       .  S
C2867      N2874   1.157       .  T
C2868      N2875   1.157       .  T
C2869      N2873   1.157       .  T
C2870      N2876   1.157       .  T
C2871      N2880   1.157       .  T
C2872      N2878   1.157       .  T
