geometry optimzed in LAMMPS
_audit_creation_date              2020-12-01 
_audit_creation_method            'lammps2cif' 
_symmetry_space_group_name_H-M    'P1' 
_symmetry_Int_Tables_number       1 
_symmetry_cell_setting            triclinic 
loop_ 
_symmetry_equiv_pos_as_xyz 
  x,y,z 
_cell_length_a                    43.42096211 
_cell_length_b                    43.93301776942052 
_cell_length_c                    18.92307867001561 
_cell_angle_alpha                 89.68276452637309 
_cell_angle_beta                  90.59840653591665 
_cell_angle_gamma                 120.0335069983648 
loop_ 
_atom_site_label 
_atom_site_type_symbol 
_atom_site_fract_x 
_atom_site_fract_y 
_atom_site_fract_z 
_atom_site_charge 
C1          C  0.33743108  0.16887224  0.07993714     0.31900
C2          C  0.33383080  0.16850780  0.93659921     0.31900
C3          C  0.35776769  0.15347498  0.04206863    -0.04300
C4          C  0.29981274  0.14771975  0.04776735    -0.05100
C5          C  0.35195911  0.20508491  0.04473374    -0.05000
C6          C  0.35619284  0.15388309  0.96856457    -0.04300
C7          C  0.29828202  0.14726792  0.97416217    -0.05100
C8          C  0.34957511  0.20462742  0.97129150    -0.05000
C9          C  0.37574104  0.13967602  0.94328152    -0.30400
N10         N  0.38840821  0.12976685  0.99922406     0.16100
C11         C  0.37764076  0.13793720  0.06000177    -0.30400
H12         H  0.38393588  0.13308280  0.11286638     0.18100
C13         C  0.26333679  0.12673544  0.95433168    -0.29400
N14         N  0.24342597  0.11538476  0.01359889     0.14800
C15         C  0.26524383  0.12799343  0.07121246    -0.29400
C16         C  0.36233325  0.23858795  0.94896760    -0.29700
N17         N  0.37322322  0.25983287  0.00649904     0.15300
H18         H  0.36394766  0.24734601  0.89484425     0.18000
C19         C  0.36712008  0.23977744  0.06548772    -0.29700
H20         H  0.37268957  0.24961203  0.11914460     0.18000
H21         H  0.25664449  0.12274137  0.12560767     0.18000
H22         H  0.37979632  0.13599976  0.88833686     0.18000
H23         H  0.25299141  0.12078508  0.90080063     0.18000
C24         C  0.34181623  0.17290793  0.43712513     0.31900
C25         C  0.33808691  0.17043818  0.58036091     0.31900
C26         C  0.35712946  0.15215897  0.47373476    -0.04300
C27         C  0.36135553  0.20855861  0.47475942    -0.05100
C28         C  0.30431708  0.15626598  0.46770801    -0.05000
C29         C  0.35563217  0.15114288  0.54724785    -0.04300
C30         C  0.35906377  0.20734244  0.54822303    -0.05100
C31         C  0.30236290  0.15462451  0.54108877    -0.05000
C32         C  0.36998251  0.13098092  0.57001546    -0.30400
N33         N  0.37954490  0.11953725  0.51208680     0.16100
C34         C  0.37160006  0.13211272  0.45321978    -0.30400
H35         H  0.37587628  0.12682790  0.39948621     0.18100
C36         C  0.37757023  0.24146720  0.57243988    -0.29400
N37         N  0.39139429  0.26307523  0.51564416     0.14800
C38         C  0.38194071  0.24328137  0.45595084    -0.29400
C39         C  0.26692156  0.13772637  0.55848050    -0.29700
N40         N  0.24755234  0.12957362  0.49755869     0.15300
H41         H  0.25603268  0.13196604  0.61123389     0.18000
C42         C  0.27007270  0.14104709  0.44189097    -0.29700
H43         H  0.26202251  0.13784686  0.38684061     0.18000
H44         H  0.38927272  0.25351116  0.40283889     0.18000
H45         H  0.37225341  0.12423070  0.62416148     0.18000
H46         H  0.38126531  0.24991423  0.62701997     0.18000
C47         C  0.16560460  0.33049186  0.04722470     0.31900
C48         C  0.16225267  0.33143817  0.90386939     0.31900
C49         C  0.14342054  0.34556065  0.01625303    -0.04300
C50         C  0.20121398  0.35188708  0.00999708    -0.05100
C51         C  0.14966980  0.29469167  0.01116597    -0.05000
C52         C  0.14199465  0.34662130  0.94276741    -0.04300
C53         C  0.19977571  0.35210607  0.93648306    -0.05100
C54         C  0.14735696  0.29478995  0.93765265    -0.05000
C55         C  0.12209431  0.36221995  0.92568692    -0.30400
N56         N  0.11116521  0.36984404  0.98688692     0.16100
C57         C  0.12375341  0.35949505  0.04230831    -0.30400
H58         H  0.11951606  0.36263427  0.09743660     0.18100
C59         C  0.23431036  0.37241310  0.91325266    -0.29400
N60         N  0.25605128  0.38473536  0.97098505     0.14800
C61         C  0.23610476  0.37261864  0.03010034    -0.29400
C62         C  0.13170219  0.26012215  0.91609480    -0.29700
N63         N  0.12534801  0.23969322  0.97464623     0.15300
H64         H  0.12602212  0.25055910  0.86225598     0.18000
C65         C  0.13645902  0.26058679  0.03261957    -0.29700
H66         H  0.13474142  0.25148658  0.08650438     0.18000
H67         H  0.24636660  0.37835941  0.08370268     0.18000
H68         H  0.11583316  0.36742572  0.87308096     0.18000
H69         H  0.24290763  0.37840094  0.85894090     0.18000
C70         C  0.16790066  0.33263353  0.40389656     0.31900
C71         C  0.16602122  0.33655925  0.54685512     0.31900
C72         C  0.14416949  0.34639864  0.43254754    -0.04300
C73         C  0.15418806  0.29770322  0.44330299    -0.05100
C74         C  0.20386151  0.35648363  0.44031682    -0.05000
C75         C  0.14354739  0.34865200  0.50582485    -0.04300
C76         C  0.15309073  0.29977295  0.51655166    -0.05100
C77         C  0.20274411  0.35867659  0.51360983    -0.05000
C78         C  0.12156592  0.36166384  0.52175466    -0.30400
N79         N  0.10843704  0.36689908  0.46023488     0.16100
C80         C  0.12171860  0.35735670  0.40539147    -0.30400
H81         H  0.11591474  0.35884793  0.35013243     0.18100
C82         C  0.13499980  0.26591426  0.54187484    -0.29400
N83         N  0.12572804  0.24344674  0.48639723     0.14800
C84         C  0.13720380  0.26254880  0.42576530    -0.29400
C85         C  0.23649990  0.38257802  0.53647732    -0.29700
N86         N  0.25813127  0.39415775  0.47947583     0.15300
H87         H  0.24481265  0.39094062  0.59043914     0.18000
C88         C  0.23863392  0.37841742  0.42037565    -0.29700
H89         H  0.24885200  0.38324790  0.36708209     0.18000
H90         H  0.13148903  0.25175102  0.37285624     0.18000
H91         H  0.11528393  0.36668109  0.57408523     0.18000
H92         H  0.12764023  0.25812401  0.59625950     0.18000
O93         O  0.04558106  0.48572913  0.05667712    -0.86500
C94         C  0.05340746  0.05275519  0.89190683     0.89500
Mg95       Mg  0.00762656  0.43068384  0.05319215     1.58100
O96         O  0.01344568  0.06000494  0.04666731    -0.86200
O97         O  0.06265891  0.03397520  0.11862565    -0.73600
C98         C  0.35423934  0.41985255  0.94783273     0.94600
O99         O  0.03269008  0.47097968  0.88959560    -0.73400
O100        O  0.37133733  0.40371892  0.93799642    -0.80900
Mg101      Mg  0.07930459  0.00982050  0.95594991     1.58000
C102        C  0.42001588  0.06398776  0.01459200     0.94500
O103        O  0.13050723  0.04999013  0.01368143    -0.79100
H104        H  0.01637741  0.07050272  0.14994533    -0.04500
C105        C  0.44419427  0.49943885  0.87986759     0.89400
O106        O  0.46975185  0.44023905  0.10787014    -0.73600
O107        O  0.06057445  0.04662056  0.95181691    -0.86400
O108        O  0.45108547  0.07978084  0.98800953    -0.79200
C109        C  0.06250755  0.14201060  0.95595937     0.96200
C110        C  0.14542791  0.08139671  0.03731837     0.94500
Mg111      Mg  0.41976121  0.49022912  0.03338563     1.58000
O112        O  0.36900111  0.45102377  0.97274576    -0.79100
O113        O  0.46883932  0.03105055  0.09836131    -0.73400
O114        O  0.07963951  0.12804090  0.98271923    -0.79200
O115        O  0.09614783  0.46857368  0.96353436    -0.80900
O116        O  0.41895926  0.37189629  0.00097063    -0.79300
C117        C  0.50014446  0.05605854  0.08702974     0.88900
O118        O  0.43808443  0.45313524  0.03614932    -0.86400
O119        O  0.45266695  0.01231603  0.93310414    -0.86500
O120        O  0.43804833  0.46829288  0.87020692    -0.73600
Mg121      Mg  0.06917309  0.07840534  0.04493589     1.58000
O122        O  0.02906609  0.12461740  0.94534884    -0.80900
H123        H  0.05159484  0.48323534  0.16103098    -0.04700
O124        O  0.48629990  0.44084860  0.94200788    -0.86200
H125        H  0.48493190  0.43321363  0.83772728    -0.04500
H126        H  0.42862541  0.44616534  0.13979225    -0.04700
C127        C  0.00105632  0.44597437  0.89773824     0.88900
C128        C  0.05677555  0.00283194  0.11057912     0.89500
C129        C  0.44434666  0.44605461  0.09596665     0.89500
H130        H  0.44507634  0.01216887  0.82870202    -0.04600
O131        O  0.02778559  0.05833134  0.88059503    -0.73700
Mg132      Mg  0.43047357  0.42263441  0.94151912     1.58000
H133        H  0.06852811  0.05203053  0.84755933    -0.04700
C134        C  0.07922183  0.43545210  0.97321910     0.94500
O135        O  0.46898112  0.37479843  0.04053030    -0.80900
C136        C  0.43569380  0.35756486  0.02796836     0.94600
O137        O  0.12839166  0.09762631  0.04670422    -0.80900
Mg138      Mg  0.49014626  0.06757983  0.93089125     1.58200
O139        O  0.04761560  0.41923809  0.99728544    -0.79200
O140        O  0.40350213  0.03112863  0.02718967    -0.80900
O141        O  0.48577713  0.04433016  0.46378110    -0.86500
C142        C  0.06230182  0.05638188  0.60169375     0.89500
Mg143      Mg  0.43002227  0.00711682  0.46821817     1.58100
O144        O  0.06370471  0.01424238  0.44487843    -0.86200
O145        O  0.03470967  0.06226953  0.37782982    -0.73600
C146        C  0.42483175  0.35920676  0.55062138     0.94600
O147        O  0.47334823  0.03168635  0.63103484    -0.73400
O148        O  0.40747509  0.37507607  0.56009888    -0.80900
Mg149      Mg  0.01605213  0.08065392  0.54529017     1.58000
C150        C  0.06705076  0.42351862  0.49435926     0.94500
O151        O  0.05530611  0.13137651  0.48643344    -0.79100
H152        H  0.07015028  0.01528415  0.34030305    -0.04500
C153        C  0.50083108  0.44888773  0.63042329     0.89400
O154        O  0.44087623  0.47263939  0.39966428    -0.73600
O155        O  0.05350076  0.06237530  0.54326993    -0.86400
O156        O  0.08045055  0.45513268  0.51536659    -0.79200
C157        C  0.14978424  0.06509517  0.52314177     0.94600
C158        C  0.08610420  0.14549124  0.45866570     0.94500
Mg159      Mg  0.49653938  0.42680067  0.47540258     1.58000
O160        O  0.45703076  0.37512295  0.53000078    -0.79100
O161        O  0.03011946  0.46359493  0.39213222    -0.73400
O162        O  0.13417622  0.08112422  0.49938739    -0.79200
O163        O  0.47006814  0.09461308  0.55889090    -0.80900
O164        O  0.37487797  0.41926014  0.49150227    -0.79300
C165        C  0.05358965  0.49565615  0.40026170     0.88900
O166        O  0.45751901  0.44325627  0.46896461    -0.86400
O167        O  0.00946711  0.45357670  0.55716354    -0.86500
O168        O  0.46875425  0.44133612  0.63777381    -0.73600
Mg169      Mg  0.08194094  0.06951272  0.44538728     1.58000
O170        O  0.13326891  0.03222134  0.53561692    -0.80900
H171        H  0.48172322  0.04994250  0.35980486    -0.04700
O172        O  0.44029440  0.48805805  0.56412372    -0.86200
H173        H  0.43120101  0.48600125  0.66789415    -0.04500
H174        H  0.45181292  0.43550114  0.36448908    -0.04700
C175        C  0.44775115  0.00047274  0.62310343     0.88900
C176        C  0.00367990  0.05661847  0.39075714     0.89500
C177        C  0.44997296  0.44954232  0.40950348     0.89500
H178        H  0.00854614  0.45054712  0.66261872    -0.04600
O179        O  0.06885602  0.03154195  0.61096977    -0.73700
Mg180      Mg  0.42426768  0.43299025  0.56029464     1.58000
H181        H  0.06323331  0.07192980  0.64662292    -0.04700
C182        C  0.43666569  0.07877834  0.54795011     0.94500
O183        O  0.37182967  0.46773506  0.47081008    -0.80900
C184        C  0.35759240  0.43441050  0.47296757     0.94600
O185        O  0.10126513  0.12797220  0.44388229    -0.80900
Mg186      Mg  0.06454353  0.49342957  0.55964338     1.58200
O187        O  0.41940143  0.04737075  0.52434744    -0.79200
O188        O  0.03409879  0.40442508  0.47928071    -0.80900
C189        C  0.10395285  0.20588699  0.49246529    -0.14600
C190        C  0.10571029  0.18375858  0.44608384    -0.29800
H191        H  0.08755674  0.19522329  0.53917772     0.14400
H192        H  0.12463741  0.19405479  0.40312741     0.15000
C193        C  0.29541370  0.41946476  0.48270244    -0.14600
C194        C  0.31947542  0.41208038  0.45636899    -0.29800
H195        H  0.30424454  0.44264543  0.51554874     0.14400
H196        H  0.31048148  0.38679373  0.43125109     0.15000
C197        C  0.08472696  0.38071366  0.45444690    -0.14600
C198        C  0.09091976  0.40880149  0.49278126    -0.29800
H199        H  0.06250983  0.36891614  0.41739975     0.14400
H200        H  0.11505070  0.42185480  0.52474200     0.15000
C201        C  0.11055666  0.20227868  0.97785023    -0.14600
C202        C  0.08162870  0.18005869  0.94012970    -0.29800
H203        H  0.12026255  0.19183820  0.01918693     0.14400
H204        H  0.06954834  0.19044185  0.90396132     0.15000
C205        C  0.31557113  0.40097504  0.93359175    -0.14600
C206        C  0.29387152  0.40768667  0.97214460    -0.29800
H207        H  0.30431310  0.37845082  0.89831622     0.14400
H208        H  0.30513550  0.42778975  0.01291853     0.15000
C209        C  0.08998381  0.38632104  0.99414068    -0.14600
C210        C  0.09732791  0.41544629  0.95767795    -0.29800
H211        H  0.07050660  0.37737342  0.03623060     0.14400
H212        H  0.11936480  0.42651021  0.92092700     0.15000
C213        C  0.16100081  0.33254600  0.82626602    -0.16700
C214        C  0.16153104  0.33454159  0.76260109     0.07400
C215        C  0.16316256  0.33695556  0.68804804     0.09300
C216        C  0.16468190  0.33792655  0.62435896    -0.17500
C217        C  0.16739416  0.33002993  0.12471916    -0.16700
C218        C  0.16837740  0.32987266  0.18838150     0.07400
C219        C  0.16886243  0.33009248  0.26293836     0.09300
C220        C  0.16870986  0.33081867  0.32658091    -0.17500
C221        C  0.39395885  0.09641935  0.51065684    -0.14600
C222        C  0.41778862  0.09838131  0.55885252    -0.29800
H223        H  0.38821695  0.07956075  0.46475466     0.14400
H224        H  0.42682008  0.11798686  0.60049022     0.15000
C225        C  0.40630812  0.32072542  0.55983252    -0.14600
C226        C  0.41312513  0.30069341  0.51655810    -0.29800
H227        H  0.38394600  0.30841452  0.59569340     0.14400
H228        H  0.43296778  0.31318955  0.47552265     0.15000
C229        C  0.18854697  0.08511876  0.53436464    -0.14600
C230        C  0.20951471  0.11188998  0.49145736    -0.29800
H231        H  0.20035338  0.07596215  0.57389933     0.14400
H232        H  0.19779103  0.11853264  0.44721934     0.15000
C233        C  0.40950724  0.11318265  0.99268973    -0.14600
C234        C  0.40202746  0.08415067  0.02960481    -0.29800
H235        H  0.42898738  0.12192462  0.95062799     0.14400
H236        H  0.38004481  0.07333689  0.06648456     0.15000
C237        C  0.38813415  0.29727449  0.00282366    -0.14600
C238        C  0.41635992  0.31938481  0.04238255    -0.29800
H239        H  0.37906605  0.30781333  0.96051747     0.14400
H240        H  0.42782114  0.30885356  0.07970636     0.15000
C241        C  0.20553240  0.09293804  0.01266807    -0.14600
C242        C  0.18416080  0.10030463  0.05072575    -0.29800
H243        H  0.19397755  0.07249705  0.97258254     0.14400
H244        H  0.19569160  0.12310839  0.08527845     0.15000
C245        C  0.33578598  0.16913086  0.65764902    -0.16700
C246        C  0.33387450  0.16849773  0.72112866     0.07400
C247        C  0.33235952  0.16822436  0.79550289     0.09300
C248        C  0.33221897  0.16827620  0.85913445    -0.17500
C249        C  0.33954616  0.16942270  0.15751452    -0.16700
C250        C  0.34137554  0.17079618  0.22118879     0.07400
C251        C  0.34299806  0.17267771  0.29577659     0.09300
C252        C  0.34332851  0.17361455  0.35950813    -0.17500
C253        C  0.33530959  0.66998875  0.09169842     0.31900
C254        C  0.33173412  0.66976531  0.94844823     0.31900
C255        C  0.35458110  0.65336126  0.05379247    -0.04300
C256        C  0.29761693  0.64988005  0.05946901    -0.05100
C257        C  0.35109714  0.70644610  0.05652439    -0.05000
C258        C  0.35299023  0.65387631  0.98029631    -0.04300
C259        C  0.29608565  0.64953782  0.98597421    -0.05100
C260        C  0.34869930  0.70598195  0.98305580    -0.05000
C261        C  0.37139082  0.63848826  0.95472637    -0.30400
N262        N  0.38347462  0.62776343  0.01036492     0.16100
C263        C  0.37337394  0.63655484  0.07134998    -0.30400
H264        H  0.37963809  0.63154098  0.12410636     0.18100
C265        C  0.26120442  0.62849897  0.96611388    -0.29400
N266        N  0.24128532  0.61664972  0.02532131     0.14800
C267        C  0.26309577  0.62951530  0.08291446    -0.29400
C268        C  0.36239869  0.74001907  0.96044714    -0.29700
N269        N  0.37392423  0.76139676  0.01774250     0.15300
H270        H  0.36407013  0.74872088  0.90625931     0.18000
C271        C  0.36727405  0.74133335  0.07695020    -0.29700
H272        H  0.37302863  0.75128959  0.13050810     0.18000
H273        H  0.25463124  0.62349383  0.13728897     0.18000
H274        H  0.37531751  0.63485602  0.89968236     0.18000
H275        H  0.25098928  0.62198929  0.91256769     0.18000
C276        C  0.33130711  0.66748057  0.44895505     0.31900
C277        C  0.32975170  0.66670449  0.59227188     0.31900
C278        C  0.34609509  0.64613750  0.48517855    -0.04300
C279        C  0.35225373  0.70344968  0.48493880    -0.05100
C280        C  0.29427861  0.65220018  0.48161984    -0.05000
C281        C  0.34578694  0.64600986  0.55873801    -0.04300
C282        C  0.35112790  0.70316808  0.55838994    -0.05100
C283        C  0.29342317  0.65146109  0.55515593    -0.05000
C284        C  0.36039365  0.62592551  0.58108241    -0.30400
N285        N  0.36881964  0.61358159  0.52288180     0.16100
C286        C  0.35992339  0.62553201  0.46427705    -0.30400
H287        H  0.36362162  0.61989173  0.41042083     0.18100
C288        C  0.37019443  0.73764334  0.58076576    -0.29400
N289        N  0.38315761  0.75852645  0.52270609     0.14800
C290        C  0.37260005  0.73790451  0.46413523    -0.29400
C291        C  0.25828834  0.63642509  0.57467410    -0.29700
N292        N  0.23800064  0.62840332  0.51491843     0.15300
H293        H  0.24830885  0.63199972  0.62811833     0.18000
C294        C  0.25974118  0.63820781  0.45795134    -0.29700
H295        H  0.25094817  0.63488316  0.40335882     0.18000
H296        H  0.37886934  0.74740932  0.41033839     0.18000
H297        H  0.36405577  0.62023132  0.63523094     0.18000
H298        H  0.37464594  0.74679005  0.63490735     0.18000
C299        C  0.16705666  0.83084594  0.05822508     0.31900
C300        C  0.16430058  0.82963713  0.91486724     0.31900
C301        C  0.14658747  0.84718814  0.02436623    -0.04300
C302        C  0.20299997  0.85021189  0.02130010    -0.05100
C303        C  0.14966847  0.79436831  0.02460396    -0.05000
C304        C  0.14546836  0.84712771  0.95079069    -0.04300
C305        C  0.20180785  0.84935026  0.94772680    -0.05100
C306        C  0.14777194  0.79349513  0.95113426    -0.05000
C307        C  0.12706873  0.86397916  0.93089488    -0.30400
N308        N  0.11667775  0.87341843  0.99058769     0.16100
C309        C  0.12820817  0.86302959  0.04770162    -0.30400
H310        H  0.12376040  0.86703214  0.10220363     0.18100
C311        C  0.23643590  0.86866772  0.92466930    -0.29400
N312        N  0.25810246  0.88142896  0.98244439     0.14800
C313        C  0.23794865  0.87052849  0.04149640    -0.29400
C314        C  0.13173167  0.75858967  0.93137998    -0.29700
N315        N  0.12456617  0.73878606  0.99105608     0.15300
H316        H  0.12657193  0.74845574  0.87794414     0.18000
C317        C  0.13565782  0.76040420  0.04801149    -0.29700
H318        H  0.13366314  0.75193808  0.10244207     0.18000
H319        H  0.24805432  0.87715324  0.09509413     0.18000
H320        H  0.12110869  0.86843431  0.87744842     0.18000
H321        H  0.24511822  0.87401795  0.87033151     0.18000
C322        C  0.16530151  0.82851942  0.41491608     0.31900
C323        C  0.16186815  0.82590772  0.55807198     0.31900
C324        C  0.14813774  0.84815798  0.44856635    -0.04300
C325        C  0.14398852  0.79152094  0.44699027    -0.05100
C326        C  0.20124406  0.84401093  0.45395970    -0.05000
C327        C  0.14688313  0.84707698  0.52205262    -0.04300
C328        C  0.14197966  0.79033981  0.52043685    -0.05100
C329        C  0.19924083  0.84216880  0.52733449    -0.05000
C330        C  0.13302331  0.86757331  0.54329851    -0.30400
N331        N  0.12502620  0.88043488  0.48492975     0.16100
C332        C  0.13404848  0.86875207  0.42653862    -0.30400
H333        H  0.13164785  0.87566524  0.37259047     0.18100
C334        C  0.12107128  0.75572197  0.53953844    -0.29400
N335        N  0.11084927  0.73579919  0.48000655     0.14800
C336        C  0.12471724  0.75732211  0.42299972    -0.29400
C337        C  0.23333317  0.85683037  0.55351960    -0.29700
N338        N  0.25606668  0.86832159  0.49827898     0.15300
H339        H  0.24115987  0.85965437  0.60867451     0.18000
C340        C  0.23687846  0.86070075  0.43704372    -0.29700
H341        H  0.24799574  0.86665403  0.38448657     0.18000
H342        H  0.12039716  0.74884497  0.36841434     0.18000
H343        H  0.12920092  0.87296880  0.59725711     0.18000
H344        H  0.11378634  0.74566993  0.59278189     0.18000
O345        O  0.04947934  0.98829433  0.05215099    -0.86500
C346        C  0.05308519  0.55281034  0.90033417     0.89500
Mg347      Mg  0.01234223  0.93291097  0.05362464     1.58100
O348        O  0.01024751  0.55733585  0.05331522    -0.86200
O349        O  0.05832607  0.53000039  0.12683377    -0.73600
C350        C  0.35613169  0.91937749  0.95036881     0.94600
O351        O  0.03293425  0.97048682  0.88663794    -0.73400
O352        O  0.37334408  0.90337127  0.94071011    -0.80900
Mg353      Mg  0.07764538  0.50864818  0.96360113     1.58000
C354        C  0.41678451  0.56291936  0.02426329     0.94500
O355        O  0.12826515  0.54759717  0.02553340    -0.79100
H356        H  0.01067466  0.56423232  0.15772094    -0.04500
C357        C  0.44514202  0.99759463  0.87488230     0.89400
O358        O  0.47293886  0.94310442  0.10808200    -0.73600
O359        O  0.05949799  0.54585608  0.96019480    -0.86400
O360        O  0.44821042  0.57944988  0.99922628    -0.79200
C361        C  0.06195803  0.64115414  0.96913446     0.96200
C362        C  0.14274193  0.57868165  0.05088791     0.94500
Mg363      Mg  0.42250474  0.99152998  0.02930048     1.58000
O364        O  0.37093014  0.95097035  0.97294873    -0.79100
O365        O  0.46533291  0.52831965  0.10588527    -0.73400
O366        O  0.07837337  0.62656080  0.99633955    -0.79200
O367        O  0.09893113  0.97044535  0.95649145    -0.80900
O368        O  0.42135927  0.87315736  0.00625468    -0.79300
C369        C  0.49677940  0.55355180  0.09680636     0.88900
O370        O  0.44076023  0.95461591  0.03497404    -0.86400
O371        O  0.45097873  0.51313082  0.93912876    -0.86500
O372        O  0.43899729  0.96634935  0.86735040    -0.73600
Mg373      Mg  0.06624396  0.57569753  0.05551857     1.58000
O374        O  0.02870705  0.62423620  0.95634009    -0.80900
H375        H  0.05687653  0.98815586  0.15654940    -0.04700
O376        O  0.48810760  0.94078297  0.94211604    -0.86200
H377        H  0.48574752  0.93098656  0.83859351    -0.04500
H378        H  0.43196212  0.94951060  0.13895763    -0.04700
C379        C  0.00174633  0.94529279  0.89826726     0.88900
C380        C  0.05225303  0.49896523  0.11630225     0.89500
C381        C  0.44741193  0.94862851  0.09539358     0.89500
H382        H  0.44471055  0.51483258  0.83464158    -0.04600
O383        O  0.02772936  0.55874223  0.88841604    -0.73700
Mg384      Mg  0.43234972  0.92244495  0.94269237     1.58000
H385        H  0.06866995  0.55251925  0.85642363    -0.04700
C386        C  0.08297461  0.93758634  0.96932243     0.94500
O387        O  0.47151597  0.87635339  0.04559171    -0.80900
C388        C  0.43810326  0.85908958  0.03425820     0.94600
O389        O  0.12538398  0.59455666  0.06072689    -0.80900
Mg390      Mg  0.48850051  0.56856594  0.94190211     1.58200
O391        O  0.05184531  0.92134761  0.99571388    -0.79200
O392        O  0.40051011  0.52984641  0.03461654    -0.80900
O393        O  0.48584346  0.54864980  0.46774843    -0.86500
C394        C  0.04513937  0.55508701  0.59940781     0.89500
Mg395      Mg  0.43052604  0.50949799  0.46962229     1.58100
O396        O  0.05738011  0.51109941  0.45681168    -0.86200
O397        O  0.02848561  0.55354243  0.36738486    -0.73600
C398        C  0.41985847  0.85559119  0.55504396     0.94600
O399        O  0.46998249  0.53361899  0.63338119    -0.73400
O400        O  0.40373783  0.87239611  0.56831137    -0.80900
Mg401      Mg  0.99890027  0.57317105  0.52122844     1.58000
C402        C  0.06657787  0.92072742  0.45694379     0.94500
O403        O  0.03937082  0.62374302  0.46342764    -0.79100
H404        H  0.06983360  0.51017703  0.35578689    -0.04500
C405        C  0.50079935  0.94554191  0.62219548     0.89400
O406        O  0.43615935  0.96813398  0.39848834    -0.73600
O407        O  0.03890558  0.55867062  0.53702058    -0.86400
O408        O  0.08418277  0.95208792  0.48083927    -0.79200
C409        C  0.13945799  0.56755865  0.54501167     0.94600
C410        C  0.07171151  0.63898414  0.44336373     0.94500
Mg411      Mg  0.48919104  0.92070500  0.46817033     1.58000
O412        O  0.45091891  0.87037603  0.52840533    -0.79100
O413        O  0.03028806  0.96901176  0.37753704    -0.73400
O414        O  0.12396970  0.58178698  0.51261266    -0.79200
O415        O  0.46590175  0.59641152  0.56099559    -0.80900
O416        O  0.36983648  0.91838293  0.50837506    -0.79300
C417        C  0.05579736  0.00018683  0.38605655     0.88900
O418        O  0.45122873  0.93807683  0.46894785    -0.86400
O419        O  0.01848381  0.95553822  0.54538168    -0.86500
O420        O  0.46948473  0.93938487  0.63421178    -0.73600
Mg421      Mg  0.07288405  0.56543934  0.44763661     1.58000
O422        O  0.12300256  0.53540287  0.56344903    -0.80900
H423        H  0.48411184  0.55325171  0.36287819    -0.04700
O424        O  0.43965388  0.98598844  0.56462108    -0.86200
H425        H  0.43351188  0.98566639  0.66921320    -0.04500
H426        H  0.44198133  0.92743726  0.36585477    -0.04700
C427        C  0.44612106  0.50178159  0.62325893     0.88900
C428        C  0.99626103  0.54585896  0.37120105     0.89500
C429        C  0.44262866  0.94339765  0.40975904     0.89500
H430        H  0.02283245  0.95062462  0.64951700    -0.04600
O431        O  0.05277332  0.53188025  0.61825593    -0.73700
Mg432      Mg  0.42203184  0.93082627  0.56541746     1.58000
H433        H  0.04270178  0.57125869  0.63931176    -0.04700
C434        C  0.43244903  0.57916492  0.55022029     0.94500
O435        O  0.37090671  0.96697580  0.46931914    -0.80900
C436        C  0.35437742  0.93408356  0.48188415     0.94600
O437        O  0.08899495  0.62281457  0.43739878    -0.80900
Mg438      Mg  0.07422640  0.99252095  0.53930092     1.58200
O439        O  0.41659322  0.54766211  0.52670365    -0.79200
O440        O  0.03306636  0.90518228  0.44715749    -0.80900
C441        C  0.08789978  0.69827017  0.47991487    -0.14600
C442        C  0.09082148  0.67732466  0.43220022    -0.29800
H443        H  0.07024367  0.68635520  0.52459073     0.14400
H444        H  0.11118198  0.68859668  0.39193800     0.15000
C445        C  0.29407889  0.88549279  0.50581258    -0.14600
C446        C  0.31578956  0.91374736  0.46692097    -0.29800
H447        H  0.30507727  0.87761426  0.54938915     0.14400
H448        H  0.30454815  0.92388630  0.42821422     0.15000
C449        C  0.11123118  0.90411946  0.48742776    -0.14600
C450        C  0.08516318  0.90086653  0.44370474    -0.29800
H451        H  0.11909302  0.92224131  0.53172043     0.14400
H452        H  0.07434305  0.88010142  0.40431770     0.15000
C453        C  0.10909422  0.70130593  0.99582614    -0.14600
C454        C  0.08165434  0.67927060  0.95455141    -0.29800
H455        H  0.11715502  0.69071857  0.03975363     0.14400
H456        H  0.07103941  0.68982144  0.91537076     0.15000
C457        C  0.31732364  0.89986754  0.93901975    -0.14600
C458        C  0.29596388  0.90426316  0.98342090    -0.29800
H459        H  0.30597721  0.87866733  0.90059475     0.14400
H460        H  0.30767685  0.92288752  0.02675511     0.15000
C461        C  0.09535822  0.88991492  0.99529402    -0.14600
C462        C  0.10176431  0.91794227  0.95570190    -0.29800
H463        H  0.07619158  0.88178345  0.03785252     0.14400
H464        H  0.12341460  0.92845631  0.91806785     0.15000
C465        C  0.16281616  0.82872563  0.83736457    -0.16700
C466        C  0.16161325  0.82735075  0.77373524     0.07400
C467        C  0.16055803  0.82570883  0.69924199     0.09300
C468        C  0.16044292  0.82502961  0.63557591    -0.17500
C469        C  0.16838860  0.83133225  0.13575162    -0.16700
C470        C  0.16867365  0.83116763  0.19941854     0.07400
C471        C  0.16816830  0.83058126  0.27392609     0.09300
C472        C  0.16713937  0.82983671  0.33753935    -0.17500
C473        C  0.38424246  0.59125193  0.52101569    -0.14600
C474        C  0.41188943  0.59712693  0.56281832    -0.29800
H475        H  0.37637652  0.57228321  0.47828139     0.14400
H476        H  0.42233215  0.61871620  0.60035417     0.15000
C477        C  0.40101725  0.81721113  0.56660417    -0.14600
C478        C  0.40511970  0.79615697  0.52098212    -0.29800
H479        H  0.38057390  0.80588363  0.60671369     0.14400
H480        H  0.42298671  0.80785350  0.47654474     0.15000
C481        C  0.17822724  0.58834714  0.55793385    -0.14600
C482        C  0.19987546  0.61222428  0.51040266    -0.29800
H483        H  0.18949994  0.58082602  0.60149818     0.14400
H484        H  0.18837421  0.61684398  0.46308817     0.15000
C485        C  0.40472482  0.61128558  0.00304277    -0.14600
C486        C  0.39809321  0.58247037  0.04002784    -0.29800
H487        H  0.42393453  0.62012962  0.96046624     0.14400
H488        H  0.37635334  0.57136010  0.07745767     0.15000
C489        C  0.38933698  0.79889604  0.01342246    -0.14600
C490        C  0.41849828  0.82107216  0.05076402    -0.29800
H491        H  0.37983707  0.80933163  0.97169647     0.14400
H492        H  0.43028793  0.81060901  0.08744867     0.15000
C493        C  0.20355024  0.59294884  0.02422154    -0.14600
C494        C  0.18142157  0.59791218  0.06531215    -0.29800
H495        H  0.19252254  0.57371286  0.98179768     0.14400
H496        H  0.19224420  0.61965172  0.10251578     0.15000
C497        C  0.32889692  0.66660856  0.66960758    -0.16700
C498        C  0.32860212  0.66734932  0.73314604     0.07400
C499        C  0.32892741  0.66857003  0.80749960     0.09300
C500        C  0.32985383  0.66940606  0.87107200    -0.17500
C501        C  0.33663503  0.66996110  0.16932540    -0.16700
C502        C  0.33605528  0.66957206  0.23307326     0.07400
C503        C  0.33424259  0.66879435  0.30764988     0.09300
C504        C  0.33255481  0.66807538  0.37130238    -0.17500
C505        C  0.83521447  0.16685414  0.08572324     0.31900
C506        C  0.83651502  0.16672952  0.94242869     0.31900
C507        C  0.85687172  0.15162251  0.05289035    -0.04300
C508        C  0.79880700  0.14573543  0.04888515    -0.05100
C509        C  0.85087242  0.20312907  0.05029619    -0.05000
C510        C  0.85782770  0.15216028  0.97935196    -0.04300
C511        C  0.79974893  0.14536661  0.97539414    -0.05100
C512        C  0.85102644  0.20279034  0.97673541    -0.05000
C513        C  0.87845447  0.13830622  0.95889098    -0.30400
N514        N  0.88928817  0.12845264  0.01771456     0.16100
C515        C  0.87631575  0.13632492  0.07567460    -0.30400
H516        H  0.88090542  0.13151049  0.12986009     0.18100
C517        C  0.76542591  0.12533009  0.95126597    -0.29400
N518        N  0.74355406  0.11428602  0.00783261     0.14800
C519        C  0.76349969  0.12655060  0.06791509    -0.29400
C520        C  0.86456049  0.23677321  0.95388362    -0.29700
N521        N  0.87338521  0.25789945  0.01136636     0.15300
H522        H  0.86810193  0.24562430  0.89951988     0.18000
C523        C  0.86522871  0.23775889  0.07073658    -0.29700
H524        H  0.86889910  0.24749943  0.12435599     0.18000
H525        H  0.75310607  0.12169594  0.12106037     0.18000
H526        H  0.88455936  0.13489215  0.90520020     0.18000
H527        H  0.75682264  0.11980675  0.89661034     0.18000
C528        C  0.83496933  0.16627394  0.44271808     0.31900
C529        C  0.83579026  0.16586502  0.58609178     0.31900
C530        C  0.85261987  0.14718509  0.47705255    -0.04300
C531        C  0.85435519  0.20243926  0.47802134    -0.05100
C532        C  0.79850002  0.14892039  0.47778114    -0.05000
C533        C  0.85351898  0.14730336  0.55061740    -0.04300
C534        C  0.85448470  0.20235739  0.55158509    -0.05100
C535        C  0.79873802  0.14826716  0.55134934    -0.05000
C536        C  0.87034768  0.12912479  0.57137608    -0.30400
N537        N  0.87896178  0.11766944  0.51222670     0.16100
C538        C  0.86800237  0.12827088  0.45454156    -0.30400
H539        H  0.87106319  0.12259793  0.40030257     0.18100
C540        C  0.87268616  0.23694008  0.57332670    -0.29400
N541        N  0.88387939  0.25764206  0.51475584     0.14800
C542        C  0.87305453  0.23686206  0.45647079    -0.29400
C543        C  0.76379274  0.13228942  0.57269739    -0.29700
N544        N  0.74280301  0.12391154  0.51389662     0.15300
H545        H  0.75441111  0.12807269  0.62659207     0.18000
C546        C  0.76372510  0.13417363  0.45587977    -0.29700
H547        H  0.75424546  0.13122459  0.40182112     0.18000
H548        H  0.87840686  0.24620924  0.40245767     0.18000
H549        H  0.87510176  0.12380963  0.62508654     0.18000
H550        H  0.87813127  0.24630623  0.62731683     0.18000
C551        C  0.66301284  0.33029783  0.04032892     0.31900
C552        C  0.66278140  0.33331533  0.89696044     0.31900
C553        C  0.64272810  0.34715652  0.00814065    -0.04300
C554        C  0.69953812  0.35101332  0.00617918    -0.05100
C555        C  0.64670271  0.29498029  0.00245784    -0.05000
C556        C  0.64287711  0.34921912  0.93466608    -0.04300
C557        C  0.69974647  0.35235858  0.93259458    -0.05100
C558        C  0.64603728  0.29618247  0.92895119    -0.05000
C559        C  0.62438216  0.36613134  0.91640314    -0.30400
N560        N  0.61280461  0.37366555  0.97685111     0.16100
C561        C  0.62358217  0.36191346  0.03295867    -0.30400
H562        H  0.61829871  0.36445223  0.08775990     0.18100
C563        C  0.73494968  0.37175091  0.91256696    -0.29400
N564        N  0.75545921  0.38239607  0.97223454     0.14800
C565        C  0.73408111  0.37006720  0.02940208    -0.29400
C566        C  0.63136878  0.26195611  0.90534673    -0.29700
N567        N  0.62398098  0.24070164  0.96281795     0.15300
H568        H  0.62755714  0.25330938  0.85089892     0.18000
C569        C  0.63349201  0.26063728  0.02208161    -0.29700
H570        H  0.63120146  0.25078955  0.07548384     0.18000
H571        H  0.74312520  0.37468548  0.08387673     0.18000
H572        H  0.61935178  0.37211859  0.86344787     0.18000
H573        H  0.74482563  0.37838156  0.85914861     0.18000
C574        C  0.66029724  0.32620802  0.39652072     0.31900
C575        C  0.66069657  0.33125162  0.53955646     0.31900
C576        C  0.64248352  0.34600030  0.42588791    -0.04300
C577        C  0.64135884  0.29113853  0.43638909    -0.05100
C578        C  0.69718792  0.34488630  0.43174571    -0.05000
C579        C  0.64309742  0.34890014  0.49920440    -0.04300
C580        C  0.64129202  0.29388345  0.50968609    -0.05100
C581        C  0.69729916  0.34711239  0.50512348    -0.05000
C582        C  0.62401004  0.36500134  0.51595209    -0.30400
N583        N  0.61152533  0.37157190  0.45494661     0.16100
C584        C  0.62225329  0.35973018  0.39962403    -0.30400
H585        H  0.61531178  0.36050523  0.34480146     0.18100
C586        C  0.62245826  0.26043379  0.53639247    -0.29400
N587        N  0.61179310  0.23749279  0.48161717     0.14800
C588        C  0.62313874  0.25584410  0.42012385    -0.29400
C589        C  0.73197809  0.36140006  0.52765423    -0.29700
N590        N  0.75291081  0.36851403  0.47007627     0.15300
H591        H  0.74133327  0.36587448  0.58192760     0.18000
C592        C  0.73199098  0.35853150  0.41105315    -0.29700
H593        H  0.74121891  0.35981975  0.35762168     0.18000
H594        H  0.61797340  0.24440561  0.36779859     0.18000
H595        H  0.61823976  0.37013627  0.56863661     0.18000
H596        H  0.61711173  0.25319678  0.59155300     0.18000
O597        O  0.54612915  0.48849459  0.04018599    -0.86500
C598        C  0.55436438  0.05425813  0.87472452     0.89500
Mg599      Mg  0.50878377  0.43328750  0.03876784     1.58100
O600        O  0.51359821  0.06167415  0.02776252    -0.86200
O601        O  0.56255380  0.03608980  0.10288951    -0.73600
C602        C  0.85420864  0.41853144  0.95390626     0.94600
O603        O  0.53170468  0.47346610  0.87395192    -0.73400
O604        O  0.87152409  0.40263022  0.94369835    -0.80900
Mg605      Mg  0.57912687  0.01115745  0.94109708     1.58000
C606        C  0.91975444  0.06204069  0.03629661     0.94500
O607        O  0.63027209  0.05103569  0.99943653    -0.79100
H608        H  0.51597790  0.07204921  0.13098443    -0.04500
C609        C  0.94484459  0.49822139  0.89261143     0.89400
O610        O  0.96807089  0.43772112  0.12037552    -0.73600
O611        O  0.56120228  0.04833638  0.93509651    -0.86400
O612        O  0.95079474  0.07790557  0.00963480    -0.79200
C613        C  0.56324790  0.14338378  0.93758509     0.96200
C614        C  0.64538408  0.08244905  0.02304758     0.94500
Mg615      Mg  0.91861118  0.48772129  0.04499741     1.58000
O616        O  0.86846632  0.44916323  0.98146426    -0.79100
O617        O  0.96918714  0.02924364  0.11827472    -0.73400
O618        O  0.58027415  0.12948988  0.96509339    -0.79200
O619        O  0.59625373  0.47135209  0.94545393    -0.80900
O620        O  0.91800957  0.36994266  0.00942683    -0.79300
C621        C  0.00034316  0.05439838  0.10628710     0.88900
O622        O  0.93649674  0.45035545  0.04754813    -0.86400
O623        O  0.95252060  0.01095322  0.95283869    -0.86500
O624        O  0.93925769  0.46740259  0.88146734    -0.73600
Mg625      Mg  0.56940905  0.08011906  0.02789302     1.58000
O626        O  0.52991348  0.12594345  0.92571111    -0.80900
H627        H  0.55252828  0.48620572  0.14441186    -0.04700
O628        O  0.98637102  0.43924343  0.95587229    -0.86200
H629        H  0.98607755  0.43101039  0.85204970    -0.04500
H630        H  0.92650168  0.44319820  0.15097663    -0.04700
C631        C  0.50033583  0.44807197  0.88315171     0.88900
C632        C  0.55623381  0.00481357  0.09508575     0.89500
C633        C  0.94251851  0.44323121  0.10757559     0.89500
H634        H  0.94481709  0.01119210  0.84857888    -0.04600
O635        O  0.52864160  0.05953368  0.86218268    -0.73700
Mg636      Mg  0.93056930  0.42117301  0.95159542     1.58000
H637        H  0.56980138  0.05347983  0.83101961    -0.04700
C638        C  0.57991838  0.43838874  0.95704165     0.94500
O639        O  0.96722797  0.37244989  0.05300307    -0.80900
C640        C  0.93419775  0.35541535  0.03796061     0.94600
O641        O  0.62864861  0.09907084  0.03132198    -0.80900
Mg642      Mg  0.98960865  0.06614277  0.95079109     1.58200
O643        O  0.54856912  0.42209750  0.98220913    -0.79200
O644        O  0.90331309  0.02914034  0.04861457    -0.80900
O645        O  0.99128329  0.04976222  0.45097041    -0.86500
C646        C  0.55647223  0.05320658  0.61662102     0.89500
Mg647      Mg  0.93551739  0.01233242  0.45524129     1.58100
O648        O  0.55923251  0.01089275  0.46200001    -0.86200
O649        O  0.52970297  0.05724277  0.39161079    -0.73600
C650        C  0.91902055  0.35426651  0.54467937     0.94600
O651        O  0.97862332  0.03578420  0.61816579    -0.73400
O652        O  0.90118088  0.36996580  0.54890971    -0.80900
Mg653      Mg  0.51025822  0.07620517  0.55672303     1.58000
C654        C  0.57189114  0.42885556  0.49715391     0.94500
O655        O  0.54809383  0.12568650  0.49387400    -0.79100
H656        H  0.56575700  0.01182921  0.35750164    -0.04500
C657        C  0.99389333  0.44769381  0.61419726     0.89400
O658        O  0.93798375  0.46115938  0.36693487    -0.73600
O659        O  0.54829214  0.05893812  0.55730535    -0.86400
O660        O  0.58561646  0.45971524  0.52258357    -0.79200
C661        C  0.64474512  0.06231831  0.54258939     0.94600
C662        C  0.57891238  0.14038666  0.46621735     0.94500
Mg663      Mg  0.99115655  0.41956528  0.46491113     1.58000
O664        O  0.95137440  0.36976204  0.52481386    -0.79100
O665        O  0.53525940  0.47244193  0.40610354    -0.73400
O666        O  0.62948045  0.07828424  0.51652992    -0.79200
O667        O  0.97586787  0.09940746  0.54904968    -0.80900
O668        O  0.86636725  0.41104877  0.47059433    -0.79300
C669        C  0.55886743  0.50402307  0.41820133     0.88900
O670        O  0.95113744  0.43395558  0.44858826    -0.86400
O671        O  0.51566489  0.45721328  0.57242945    -0.86500
O672        O  0.96159158  0.43987785  0.61766338    -0.73600
Mg673      Mg  0.57716022  0.06580248  0.46036145     1.58000
O674        O  0.62794721  0.02955597  0.55602423    -0.80900
H675        H  0.98710961  0.05638109  0.34746538    -0.04700
O676        O  0.93219368  0.48163792  0.52747584    -0.86200
H677        H  0.91909698  0.48234883  0.62810478    -0.04500
H678        H  0.94784893  0.42161141  0.34625911    -0.04700
C679        C  0.95295178  0.00474665  0.60911138     0.88900
C680        C  0.49834435  0.05090111  0.40367230     0.89500
C681        C  0.94528114  0.43774549  0.38606625     0.89500
H682        H  0.51598518  0.44938142  0.67655554    -0.04600
O683        O  0.56266133  0.02825060  0.62780895    -0.73700
Mg684      Mg  0.91701703  0.42738149  0.53720709     1.58000
H685        H  0.55693339  0.06897418  0.66073575    -0.04700
C686        C  0.94237559  0.08326871  0.53839077     0.94500
O687        O  0.86770273  0.45752589  0.41893260    -0.80900
C688        C  0.85120406  0.42535040  0.43716561     0.94600
O689        O  0.59559719  0.12396032  0.45518937    -0.80900
Mg690      Mg  0.57061731  0.49688898  0.57524229     1.58200
O691        O  0.92539172  0.05204993  0.51379934    -0.79200
O692        O  0.53893052  0.41055951  0.48132299    -0.80900
C693        C  0.59118377  0.20006186  0.48974305    -0.14600
C694        C  0.59658223  0.17815106  0.44942848    -0.29800
H695        H  0.57345968  0.18965471  0.53470863     0.14400
H696        H  0.61695413  0.18864378  0.40909562     0.15000
C697        C  0.79079109  0.38307544  0.47371082    -0.14600
C698        C  0.81258087  0.40477857  0.42369516    -0.29800
H699        H  0.80219657  0.37965325  0.52247873     0.14400
H700        H  0.80160366  0.41146322  0.37833124     0.15000
C701        C  0.58894479  0.38671842  0.45042820    -0.14600
C702        C  0.59533909  0.41380630  0.49214115    -0.29800
H703        H  0.56709731  0.37638971  0.41246808     0.14400
H704        H  0.61909854  0.42544384  0.52530251     0.15000
C705        C  0.61007185  0.20343806  0.96377501    -0.14600
C706        C  0.58230406  0.18149376  0.92313962    -0.29800
H707        H  0.61909279  0.19269126  0.00578639     0.14400
H708        H  0.57071090  0.19206308  0.88621878     0.15000
C709        C  0.81578966  0.39994782  0.93696494    -0.14600
C710        C  0.79333014  0.40475535  0.97729146    -0.29800
H711        H  0.80532995  0.37912208  0.89770215     0.14400
H712        H  0.80390335  0.42297033  0.02149391     0.15000
C713        C  0.59191757  0.39053480  0.98278864    -0.14600
C714        C  0.59846454  0.41862355  0.94332430    -0.29800
H715        H  0.57286898  0.38245984  0.02557053     0.14400
H716        H  0.62002901  0.42904742  0.90550485     0.15000
C717        C  0.66246815  0.33477660  0.81933323    -0.16700
C718        C  0.66189177  0.33519503  0.75556148     0.07400
C719        C  0.66123372  0.33478927  0.68084009     0.09300
C720        C  0.66086558  0.33365136  0.61710014    -0.17500
C721        C  0.66296239  0.32836688  0.11775171    -0.16700
C722        C  0.66224354  0.32635270  0.18127140     0.07400
C723        C  0.66106759  0.32441829  0.25564833     0.09300
C724        C  0.66031019  0.32405919  0.31925346    -0.17500
C725        C  0.89528568  0.09629137  0.50894386    -0.14600
C726        C  0.92277012  0.10204522  0.55108257    -0.29800
H727        H  0.88752356  0.07751221  0.46585077     0.14400
H728        H  0.93319566  0.12335566  0.58925705     0.15000
C729        C  0.90078310  0.31612069  0.55770779    -0.14600
C730        C  0.90527108  0.29525025  0.51240577    -0.29800
H731        H  0.88023969  0.30471480  0.59761002     0.14400
H732        H  0.92297480  0.30702831  0.46774833     0.15000
C733        C  0.68352457  0.08200662  0.55462917    -0.14600
C734        C  0.70482058  0.10824832  0.51110492    -0.29800
H735        H  0.69505084  0.07234640  0.59373615     0.14400
H736        H  0.69315433  0.11524781  0.46731002     0.15000
C737        C  0.91096451  0.11236347  0.01604466    -0.14600
C738        C  0.90160989  0.08218652  0.05043500    -0.29800
H739        H  0.93238864  0.12223116  0.97788373     0.14400
H740        H  0.87803468  0.07047253  0.08322976     0.15000
C741        C  0.88843606  0.29532911  0.00733755    -0.14600
C742        C  0.91454003  0.31722769  0.05132394    -0.29800
H743        H  0.88140514  0.30607530  0.96212191     0.14400
H744        H  0.92433176  0.30658792  0.09199932     0.15000
C745        C  0.70558286  0.09301064  0.00244982    -0.14600
C746        C  0.68391614  0.10073636  0.03857123    -0.29800
H747        H  0.69451828  0.07299537  0.96147785     0.14400
H748        H  0.69518060  0.12316105  0.07410303     0.15000
C749        C  0.83633416  0.16574735  0.66346575    -0.16700
C750        C  0.83684532  0.16591447  0.72705562     0.07400
C751        C  0.83720027  0.16627503  0.80145617     0.09300
C752        C  0.83711950  0.16657179  0.86503640    -0.17500
C753        C  0.83453468  0.16687215  0.16321496    -0.16700
C754        C  0.83424288  0.16676301  0.22688997     0.07400
C755        C  0.83424692  0.16659817  0.30144866     0.09300
C756        C  0.83450255  0.16647113  0.36513803    -0.17500
C757        C  0.83365582  0.66678304  0.10002267     0.31900
C758        C  0.83575725  0.67039590  0.95682727     0.31900
C759        C  0.85524561  0.65206531  0.06439383    -0.04300
C760        C  0.79733509  0.64677539  0.06199067    -0.05100
C761        C  0.84983284  0.70404333  0.06851917    -0.05000
C762        C  0.85662333  0.65456335  0.99098191    -0.04300
C763        C  0.79873793  0.64837117  0.98850853    -0.05100
C764        C  0.85030559  0.70552726  0.99503444    -0.05000
C765        C  0.87655849  0.64035496  0.96776236    -0.30400
N766        N  0.88658045  0.62833782  0.02459228     0.16100
C767        C  0.87373870  0.63522876  0.08411644    -0.30400
H768        H  0.87767097  0.62862800  0.13736126     0.18100
C769        C  0.76458846  0.62862744  0.96309291    -0.29400
N770        N  0.74227352  0.61576835  0.01887425     0.14800
C771        C  0.76184729  0.62662659  0.07973675    -0.29400
C772        C  0.86400818  0.74002872  0.97566286    -0.29700
N773        N  0.87281453  0.75981084  0.03510696     0.15300
H774        H  0.86762487  0.75014724  0.92225324     0.18000
C775        C  0.86437966  0.73829004  0.09242897    -0.29700
H776        H  0.86792606  0.74683500  0.14692415     0.18000
H777        H  0.75112491  0.61999052  0.13255211     0.18000
H778        H  0.88262057  0.63807160  0.91336673     0.18000
H779        H  0.75642525  0.62431596  0.90809161     0.18000
C780        C  0.83491799  0.66943731  0.45713016     0.31900
C781        C  0.83684019  0.67329107  0.60037496     0.31900
C782        C  0.85216809  0.65072432  0.49479851    -0.04300
C783        C  0.85532650  0.70656804  0.48814858    -0.05100
C784        C  0.79873899  0.65394726  0.49310907    -0.05000
C785        C  0.85358273  0.65303656  0.56821538    -0.04300
C786        C  0.85604472  0.70867136  0.56160075    -0.05100
C787        C  0.79956405  0.65549745  0.56662347    -0.05000
C788        C  0.87320277  0.63816520  0.59187722    -0.30400
N789        N  0.88280944  0.62621051  0.53496425     0.16100
C790        C  0.87015632  0.63379631  0.47539574    -0.30400
H791        H  0.87521256  0.62893836  0.42191962     0.18100
C792        C  0.87539914  0.74377788  0.57918785    -0.29400
N793        N  0.88663678  0.76269167  0.51830661     0.14800
C794        C  0.87477664  0.74023629  0.46259520    -0.29400
C795        C  0.76485137  0.64092573  0.58885046    -0.29700
N796        N  0.74339259  0.63118558  0.53058855     0.15300
H797        H  0.75596264  0.63846546  0.64288321     0.18000
C798        C  0.76382765  0.63928815  0.47204190    -0.29700
H799        H  0.75392153  0.63482219  0.41815264     0.18000
H800        H  0.87987565  0.74793688  0.40761183     0.18000
H801        H  0.88063382  0.63681796  0.64609091     0.18000
H802        H  0.88150546  0.75467048  0.63201269     0.18000
C803        C  0.66610673  0.83356023  0.05906213     0.31900
C804        C  0.66586161  0.83374723  0.91569911     0.31900
C805        C  0.64648632  0.85049504  0.02393721    -0.04300
C806        C  0.70269930  0.85306319  0.02455395    -0.05100
C807        C  0.64891369  0.79732155  0.02398563    -0.05000
C808        C  0.64663920  0.85103969  0.95036085    -0.04300
C809        C  0.70275037  0.85284814  0.95101291    -0.05100
C810        C  0.64832850  0.79724969  0.95041887    -0.05000
C811        C  0.62826955  0.86760562  0.92894748    -0.30400
N812        N  0.61671604  0.87644746  0.98772214     0.16100
C813        C  0.62747279  0.86591960  0.04579006    -0.30400
H814        H  0.62194817  0.86941796  0.09986493     0.18100
C815        C  0.73775201  0.87204822  0.93013758    -0.29400
N816        N  0.75846380  0.88418086  0.98924189     0.14800
C817        C  0.73735112  0.87304376  0.04695812    -0.29400
C818        C  0.63172757  0.76256546  0.92905294    -0.29700
N819        N  0.62289483  0.74196847  0.98782806     0.15300
H820        H  0.62728200  0.75309255  0.87514614     0.18000
C821        C  0.63350334  0.76295019  0.04584774    -0.29700
H822        H  0.63021945  0.75378188  0.09995667     0.18000
H823        H  0.74662571  0.87914344  0.10114731     0.18000
H824        H  0.62302867  0.87218127  0.87504184     0.18000
H825        H  0.74736266  0.87765409  0.87641139     0.18000
C826        C  0.66809560  0.83417420  0.41631431     0.31900
C827        C  0.66881857  0.83496289  0.55962892     0.31900
C828        C  0.65249247  0.85516151  0.45059880    -0.04300
C829        C  0.64714274  0.79795463  0.45222745    -0.05100
C830        C  0.70513708  0.85001388  0.45142663    -0.05000
C831        C  0.65347190  0.85580269  0.52413138    -0.04300
C832        C  0.64729765  0.79873287  0.52574931    -0.05100
C833        C  0.70518036  0.84982077  0.52501241    -0.05000
C834        C  0.63955313  0.87606345  0.54613998    -0.30400
N835        N  0.62926687  0.88711353  0.48827330     0.16100
C836        C  0.63687358  0.87452300  0.42936726    -0.30400
H837        H  0.63190027  0.87950658  0.37556777     0.18100
C838        C  0.62615794  0.76496037  0.54927166    -0.29400
N839        N  0.61375849  0.74341325  0.49234748     0.14800
C840        C  0.62638644  0.76310911  0.43255577    -0.29400
C841        C  0.73983932  0.86433990  0.54764281    -0.29700
N842        N  0.76105676  0.87424822  0.49009035     0.15300
H843        H  0.74909487  0.86809415  0.60195471     0.18000
C844        C  0.74029281  0.86573410  0.43083604    -0.29700
H845        H  0.75001325  0.87034380  0.37717515     0.18000
H846        H  0.62029048  0.75294647  0.37916582     0.18000
H847        H  0.63663108  0.88200211  0.60026801     0.18000
H848        H  0.62033418  0.75654667  0.60378076     0.18000
O849        O  0.54861092  0.99021016  0.03677621    -0.86500
C850        C  0.55324866  0.55608117  0.88416503     0.89500
Mg851      Mg  0.51134989  0.93495666  0.03953063     1.58100
O852        O  0.51092616  0.56044563  0.03811804    -0.86200
O853        O  0.55910794  0.53287798  0.11012726    -0.73600
C854        C  0.85664646  0.91834621  0.96789851     0.94600
O855        O  0.53283489  0.97193433  0.87156282    -0.73400
O856        O  0.87366172  0.90212040  0.95833205    -0.80900
Mg857      Mg  0.57754944  0.51134743  0.94625475     1.58000
C858        C  0.91705360  0.56125009  0.03786927     0.94500
O859        O  0.62854800  0.55020687  0.00721553    -0.79100
H860        H  0.51209440  0.56859220  0.14213528    -0.04500
C861        C  0.94504797  0.99647341  0.89436580     0.89400
O862        O  0.97411350  0.94074148  0.12377707    -0.73600
O863        O  0.55966215  0.54886010  0.94377365    -0.86400
O864        O  0.94873263  0.57746568  0.01408123    -0.79200
C865        C  0.56183671  0.64446236  0.95644241     0.96200
C866        C  0.64327347  0.58103274  0.03386591     0.94500
Mg867      Mg  0.92280221  0.98975456  0.04919681     1.58000
O868        O  0.87154011  0.94968348  0.99181528    -0.79100
O869        O  0.96389011  0.52487948  0.11928147    -0.73400
O870        O  0.57854624  0.62991384  0.98255244    -0.79200
O871        O  0.59802867  0.97154185  0.94368424    -0.80900
O872        O  0.92189613  0.87144769  0.02270014    -0.79300
C873        C  0.99561182  0.54986751  0.11158317     0.88900
O874        O  0.94154507  0.95297454  0.05308162    -0.86400
O875        O  0.95080759  0.51106784  0.95257001    -0.86500
O876        O  0.93923592  0.96538032  0.88603994    -0.73600
Mg877      Mg  0.56687892  0.57864391  0.03957957     1.58000
O878        O  0.52865909  0.62722835  0.94239355    -0.80900
H879        H  0.55623990  0.99011283  0.14108943    -0.04700
O880        O  0.98858184  0.93934414  0.95786991    -0.86200
H881        H  0.98574912  0.92943248  0.85432918    -0.04500
H882        H  0.93373448  0.94750050  0.15737678    -0.04700
C883        C  0.50157398  0.94676969  0.88276938     0.88900
C884        C  0.55302867  0.50185261  0.09967038     0.89500
C885        C  0.94871327  0.94669382  0.11285042     0.89500
H886        H  0.94587776  0.51421839  0.84807143    -0.04600
O887        O  0.52778614  0.56189450  0.87272416    -0.73700
Mg888      Mg  0.93277176  0.92109737  0.95999432     1.58000
H889        H  0.56890454  0.55611716  0.84006385    -0.04700
C890        C  0.58186515  0.93884512  0.95770730     0.94500
O891        O  0.97242785  0.87417505  0.05798014    -0.80900
C892        C  0.93885031  0.85708655  0.04846318     0.94600
O893        O  0.62619973  0.59718709  0.04430173    -0.80900
Mg894      Mg  0.98852290  0.56599640  0.95667650     1.58200
O895        O  0.55070869  0.92292341  0.98382525    -0.79200
O896        O  0.90004050  0.52803003  0.04658065    -0.80900
O897        O  0.98075186  0.53957800  0.42831380    -0.86500
C898        C  0.55337614  0.55823964  0.62828517     0.89500
Mg899      Mg  0.92581989  0.49965333  0.42440685     1.58100
O900        O  0.56237710  0.51741218  0.47702238    -0.86200
O901        O  0.53155349  0.56148449  0.40063245    -0.73600
C902        C  0.92426045  0.86036874  0.54119644     0.94600
O903        O  0.95940380  0.52885554  0.59289493    -0.73400
O904        O  0.90857168  0.87753604  0.55453375    -0.80900
Mg905      Mg  0.50775054  0.57990237  0.56245159     1.58000
C906        C  0.56343006  0.91920994  0.47301157     0.94500
O907        O  0.54669501  0.63093377  0.50269656    -0.79100
H908        H  0.57538247  0.52003217  0.37530286    -0.04500
C909        C  0.00615702  0.94964813  0.60573452     0.89400
O910        O  0.94151473  0.97368045  0.38415616    -0.73600
O911        O  0.54686550  0.56409005  0.56760728    -0.86400
O912        O  0.58008176  0.95035494  0.49806690    -0.79200
C913        C  0.64546229  0.57110898  0.56349456     0.94600
C914        C  0.57801500  0.64574561  0.47694397     0.94500
Mg915      Mg  0.99333048  0.92440868  0.45165068     1.58000
O916        O  0.95490307  0.87454664  0.51286218    -0.79100
O917        O  0.52594375  0.96556227  0.39470628    -0.73400
O918        O  0.63000208  0.58606687  0.53380851    -0.79200
O919        O  0.95597488  0.58819731  0.50676114    -0.80900
O920        O  0.87481433  0.92343709  0.49505740    -0.79300
C921        C  0.55141649  0.99673826  0.40326602     0.88900
O922        O  0.95600972  0.94267718  0.45335241    -0.86400
O923        O  0.51342379  0.95198021  0.56208100    -0.86500
O924        O  0.97509214  0.94409895  0.61822028    -0.73600
Mg925      Mg  0.57813965  0.57173614  0.47388649     1.58000
O926        O  0.62899706  0.53863598  0.57946887    -0.80900
H927        H  0.98159616  0.54340131  0.32299381    -0.04700
O928        O  0.94532238  0.99075102  0.55021224    -0.86200
H929        H  0.93826813  0.98963301  0.65457909    -0.04500
H930        H  0.94701871  0.93303417  0.34989442    -0.04700
C931        C  0.93571268  0.49693372  0.58408135     0.88900
C932        C  0.49982406  0.55487470  0.40891891     0.89500
C933        C  0.94767890  0.94866157  0.39444230     0.89500
H934        H  0.51737853  0.94652272  0.66617126    -0.04600
O935        O  0.55996755  0.53376136  0.64178797    -0.73700
Mg936      Mg  0.92734372  0.93576296  0.55067016     1.58000
H937        H  0.55176837  0.57335514  0.67153038    -0.04700
C938        C  0.92315180  0.56962493  0.49009655     0.94500
O939        O  0.87616812  0.97221926  0.45664440    -0.80900
C940        C  0.85939539  0.93932625  0.46931771     0.94600
O941        O  0.59479926  0.62929827  0.46753962    -0.80900
Mg942      Mg  0.56906635  0.98953907  0.55737831     1.58200
O943        O  0.90960199  0.53819673  0.46760135    -0.79200
O944        O  0.52984802  0.90261933  0.46388836    -0.80900
C945        C  0.59065086  0.70604622  0.49746260    -0.14600
C946        C  0.59644358  0.68361952  0.45992281    -0.29800
H947        H  0.57137588  0.69595122  0.53995044     0.14400
H948        H  0.61832522  0.69391036  0.42282691     0.15000
C949        C  0.79914883  0.89055261  0.49400490    -0.14600
C950        C  0.82056220  0.91927706  0.45588173    -0.29800
H951        H  0.81061583  0.88193387  0.53537633     0.14400
H952        H  0.80893873  0.93009322  0.41965807     0.15000
C953        C  0.61362185  0.90911811  0.49177450    -0.14600
C954        C  0.58339586  0.90102947  0.45688724    -0.29800
H955        H  0.62373387  0.92969861  0.53161264     0.14400
H956        H  0.57120561  0.87814290  0.42257409     0.15000
C957        C  0.60691266  0.70434710  0.99068772    -0.14600
C958        C  0.58117039  0.68292831  0.94532370    -0.29800
H959        H  0.61355661  0.69298382  0.03539181     0.14400
H960        H  0.57166221  0.69398688  0.90497572     0.15000
C961        C  0.81800964  0.89954978  0.95391559    -0.14600
C962        C  0.79637214  0.90631615  0.99251513    -0.29800
H963        H  0.80673643  0.87730302  0.91793048     0.14400
H964        H  0.80759288  0.92613620  0.03384099     0.15000
C965        C  0.59534025  0.89287556  0.99044604    -0.14600
C966        C  0.60054921  0.91907155  0.94644762    -0.29800
H967        H  0.57705214  0.88625649  0.03426315     0.14400
H968        H  0.62141848  0.92837245  0.90720351     0.15000
C969        C  0.66597642  0.83400466  0.83835917    -0.16700
C970        C  0.66675707  0.83444339  0.77482298     0.07400
C971        C  0.66801752  0.83498817  0.70052592     0.09300
C972        C  0.66883290  0.83523348  0.63700009    -0.17500
C973        C  0.66637126  0.83354784  0.13668382    -0.16700
C974        C  0.66677732  0.83358846  0.20040041     0.07400
C975        C  0.66728216  0.83365856  0.27501269     0.09300
C976        C  0.66767234  0.83380463  0.33873369    -0.17500
C977        C  0.90531638  0.61090340  0.53726170    -0.14600
C978        C  0.89982243  0.58497850  0.49275100    -0.29800
H979        H  0.92628921  0.61985426  0.57703350     0.14400
H980        H  0.87682528  0.57413497  0.45757236     0.15000
C981        C  0.90545843  0.82234824  0.55584630    -0.14600
C982        C  0.90840882  0.80014853  0.51165423    -0.29800
H983        H  0.88602450  0.81210732  0.59794674     0.14400
H984        H  0.92514610  0.81056158  0.46531105     0.15000
C985        C  0.68423237  0.59148139  0.57567714    -0.14600
C986        C  0.70540160  0.61577992  0.52852802    -0.29800
H987        H  0.69585579  0.58331508  0.61749638     0.14400
H988        H  0.69350491  0.62095392  0.48251568     0.15000
C989        C  0.90769591  0.61159200  0.01960209    -0.14600
C990        C  0.89893465  0.58139806  0.05358783    -0.29800
H991        H  0.92847835  0.62130650  0.98004442     0.14400
H992        H  0.87586967  0.56968819  0.08776190     0.15000
C993        C  0.88762155  0.79726390  0.03442358    -0.14600
C994        C  0.91932530  0.81896321  0.06461487    -0.29800
H995        H  0.87568915  0.80803350  0.99879559     0.14400
H996        H  0.93285473  0.80787558  0.09459285     0.15000
C997        C  0.70432849  0.59391731  0.01186160    -0.14600
C998        C  0.68176279  0.59931158  0.05072875    -0.29800
H999        H  0.69395394  0.57562114  0.96777807     0.14400
H1000       H  0.69226705  0.62022089  0.08980178     0.15000
C1001       C  0.83783998  0.67509264  0.67776472    -0.16700
C1002       C  0.83805893  0.67519613  0.74140981     0.07400
C1003       C  0.83765979  0.67406055  0.81586565     0.09300
C1004       C  0.83690410  0.67247090  0.87942940    -0.17500
C1005       C  0.83265012  0.66513851  0.17755827    -0.16700
C1006       C  0.83253601  0.66501544  0.24129319     0.07400
C1007       C  0.83307884  0.66598713  0.31590920     0.09300
C1008       C  0.83387668  0.66740899  0.37958126    -0.17500
loop_ 
_geom_bond_atom_site_label_1 
_geom_bond_atom_site_label_2 
_geom_bond_distance 
_geom_bond_site_symmetry_2 
_ccdc_geom_bond_type 
C1            C3   1.539       .  S
C1            C5   1.538       .  S
C1            C4   1.539       .  S
C1          C249   1.469       .  S
C2            C6   1.526       .  S
C2            C8   1.527       .  S
C2            C7   1.527       .  S
C2          C248   1.467       .  S
C3           C11   1.381       .  A
C3            C6   1.392   1_554  A
C4           C15   1.381       .  A
C4            C7   1.394   1_554  A
C5           C19   1.381       .  A
C5            C8   1.392   1_554  A
C6            C9   1.372       .  A
C7           C13   1.371       .  A
C8           C16   1.372       .  A
C9           N10   1.355       .  A
C9           H22   1.083       .  S
N10          C11   1.362   1_556  A
N10         C233   1.434       .  S
C11          H12   1.082       .  S
C13          N14   1.355   1_556  A
C13          H23   1.083       .  S
N14          C15   1.361       .  A
N14         C241   1.434       .  S
C15          H21   1.082       .  S
C16          N17   1.356   1_556  A
C16          H18   1.083       .  S
N17          C19   1.362       .  A
N17         C237   1.436       .  S
C19          H20   1.082       .  S
C24          C26   1.531       .  S
C24          C28   1.531       .  S
C24          C27   1.533       .  S
C24         C252   1.470       .  S
C25          C29   1.534       .  S
C25          C31   1.531       .  S
C25          C30   1.533       .  S
C25         C245   1.466       .  S
C26          C34   1.373       .  A
C26          C29   1.393       .  A
C27          C38   1.374       .  A
C27          C30   1.394       .  A
C28          C42   1.375       .  A
C28          C31   1.391       .  A
C29          C32   1.379       .  A
C30          C36   1.377       .  A
C31          C39   1.375       .  A
C32          N33   1.361       .  A
C32          H45   1.082       .  S
N33          C34   1.357       .  A
N33         C221   1.436       .  S
C34          H35   1.083       .  S
C36          N37   1.360       .  A
C36          H46   1.082       .  S
N37          C38   1.358       .  A
N37         C226   1.436       .  S
C38          H44   1.083       .  S
C39          N40   1.359       .  A
C39          H41   1.082       .  S
N40          C42   1.357       .  A
N40         C230   1.434       .  S
C42          H43   1.083       .  S
C47          C49   1.527       .  S
C47          C51   1.527       .  S
C47          C50   1.527       .  S
C47         C217   1.468       .  S
C48          C52   1.538       .  S
C48          C54   1.541       .  S
C48          C53   1.538       .  S
C48         C213   1.470       .  S
C49          C57   1.372       .  A
C49          C52   1.393   1_554  A
C50          C61   1.371       .  A
C50          C53   1.392   1_554  A
C51          C65   1.370       .  A
C51          C54   1.394   1_554  A
C52          C55   1.380       .  A
C53          C59   1.381       .  A
C54          C62   1.383       .  A
C55          N56   1.361       .  A
C55          H68   1.082       .  S
N56          C57   1.355   1_556  A
N56         C209   1.435       .  S
C57          H58   1.083       .  S
C59          N60   1.361       .  A
C59          H69   1.082       .  S
N60          C61   1.355   1_556  A
N60         C206   1.434       .  S
C61          H67   1.083       .  S
C62          N63   1.363       .  A
C62          H64   1.082       .  S
N63          C65   1.355   1_556  A
N63         C201   1.436       .  S
C65          H66   1.083       .  S
C70          C72   1.536       .  S
C70          C74   1.536       .  S
C70          C73   1.532       .  S
C70         C220   1.467       .  S
C71          C75   1.528       .  S
C71          C77   1.532       .  S
C71          C76   1.533       .  S
C71         C216   1.471       .  S
C72          C80   1.379       .  A
C72          C75   1.392       .  A
C73          C84   1.378       .  A
C73          C76   1.392       .  A
C74          C88   1.379       .  A
C74          C77   1.394       .  A
C75          C78   1.372       .  A
C76          C82   1.375       .  A
C77          C85   1.375       .  A
C78          N79   1.359       .  A
C78          H91   1.083       .  S
N79          C80   1.358       .  A
N79         C197   1.436       .  S
C80          H81   1.082       .  S
C82          N83   1.358       .  A
C82          H92   1.083       .  S
N83          C84   1.361       .  A
N83         C189   1.438       .  S
C84          H90   1.082       .  S
C85          N86   1.357       .  A
C85          H87   1.082       .  S
N86          C88   1.360       .  A
N86         C193   1.434       .  S
C88          H89   1.082       .  S
O93         Mg95   2.140       .  S
O93        Mg353   2.164   1_554  S
O93         C380   1.236       .  S
C94         H133   1.081       .  S
C94         O107   1.236       .  S
C94         O131   1.269       .  A
Mg95        O628   2.165   1_454  S
Mg95        O139   2.303   1_554  S
Mg95        O639   2.265   1_455  S
Mg95        O610   2.290   1_455  S
O96        Mg121   2.134       .  S
O96        Mg642   2.161   1_454  S
O96         C621   1.236       .  S
O97         C128   1.270       .  A
O97        Mg121   2.293       .  S
C98         O100   1.273       .  A
C98         O112   1.277       .  A
C98         C205   1.476       .  S
O99         C127   1.269       .  A
O99        Mg353   2.290       .  S
O100       Mg132   2.269       .  S
Mg101       O107   2.144       .  S
Mg101       O345   2.166   1_546  S
Mg101       O103   2.301   1_556  S
Mg101       O351   2.291   1_545  S
Mg101       O367   2.279   1_545  S
C102        O140   1.272       .  A
C102        O108   1.276   1_554  A
C102        C234   1.475       .  S
O103        C110   1.277       .  A
H104        C621   1.081       .  S
C105        H382   1.081       .  S
C105        O371   1.237       .  S
C105        O120   1.270       .  A
O106        C129   1.269       .  A
O106       Mg599   2.290       .  S
O107       Mg121   2.165   1_556  S
O108       Mg138   2.299       .  S
C109        O122   1.272       .  A
C109        O114   1.278       .  A
C109        C202   1.478       .  S
C110        O137   1.272       .  A
C110        C242   1.476       .  S
Mg111       O118   2.142       .  S
Mg111       O371   2.167   1_554  S
Mg111       O112   2.304   1_554  S
Mg111       O365   2.292       .  S
Mg111       O392   2.277       .  S
O113        C117   1.269       .  A
O113       Mg363   2.290   1_545  S
O114       Mg121   2.311   1_556  S
O115        C134   1.273       .  A
O115       Mg353   2.272       .  S
O116        C136   1.278       .  A
O116       Mg132   2.314   1_554  S
C117        H608   1.081       .  S
C117        O600   1.235       .  S
O118       Mg132   2.164   1_554  S
O118        C129   1.235       .  S
O119       Mg138   2.142       .  S
O119       Mg363   2.167   1_546  S
O119        C357   1.236   1_545  S
O120       Mg132   2.296       .  S
Mg121       O137   2.270       .  S
O122       Mg642   2.267   1_455  S
H123        C380   1.081       .  S
O124       Mg132   2.139       .  S
O124       Mg599   2.167   1_556  S
O124        C631   1.237       .  S
H125        C631   1.081       .  S
H126        C129   1.081       .  S
C127        H629   1.081   1_455  S
C127        O628   1.236   1_455  S
C128        H375   1.081   1_545  S
C128        O345   1.236   1_545  S
H130        C357   1.081   1_545  S
O131       Mg642   2.291   1_455  S
C134        O139   1.276       .  A
C134        C210   1.475       .  S
O135        C136   1.272       .  A
O135       Mg599   2.268       .  S
C136        C238   1.477       .  S
Mg138       O600   2.164   1_556  S
Mg138       O626   2.266       .  S
Mg138       O635   2.292       .  S
O140       Mg363   2.268   1_545  S
O141       Mg143   2.140       .  S
O141       Mg653   2.164       .  S
O141        C680   1.236       .  S
C142        H181   1.081       .  S
C142        O155   1.235       .  S
C142        O179   1.269       .  A
Mg143       O424   2.172   1_545  S
Mg143       O187   2.306       .  S
Mg143       O435   2.273   1_545  S
Mg143       O406   2.288   1_545  S
O144       Mg169   2.144       .  S
O144       Mg438   2.171   1_545  S
O144        C417   1.235       .  S
O145        C176   1.268       .  A
O145       Mg169   2.289       .  S
C146        O148   1.271       .  A
C146        O160   1.275       .  A
C146        C225   1.474       .  S
O147        C175   1.269       .  A
O147       Mg653   2.291       .  S
O148       Mg180   2.269       .  S
Mg149       O155   2.145       .  S
Mg149       O645   2.170   1_455  S
Mg149       O151   2.307       .  S
Mg149       O651   2.289   1_455  S
Mg149       O667   2.274   1_455  S
C150        O188   1.275       .  A
C150        O156   1.272       .  A
C150        C198   1.471       .  S
O151        C158   1.277       .  A
H152        C417   1.081       .  S
C153        H682   1.081       .  S
C153        O671   1.236       .  S
C153        O168   1.269       .  A
O154        C177   1.272       .  A
O154       Mg395   2.311       .  S
O155       Mg169   2.170       .  S
O156       Mg186   2.281       .  S
C157        O170   1.272       .  A
C157        O162   1.275       .  A
C157        C229   1.471       .  S
C158        O185   1.272       .  A
C158        C190   1.475       .  S
Mg159       O166   2.152       .  S
Mg159       O671   2.175       .  S
Mg159       O160   2.297       .  S
Mg159       O665   2.282       .  S
Mg159       O692   2.285       .  S
O161        C165   1.268       .  A
O161       Mg663   2.290   1_455  S
O162       Mg169   2.291       .  S
O163        C182   1.271       .  A
O163       Mg653   2.262       .  S
O164        C184   1.273       .  A
O164       Mg180   2.305       .  S
C165        H404   1.081       .  S
C165        O396   1.235       .  S
O166       Mg180   2.160       .  S
O166        C177   1.237       .  S
O167       Mg186   2.143       .  S
O167       Mg663   2.173   1_455  S
O167        C657   1.235   1_455  S
O168       Mg180   2.292       .  S
Mg169       O185   2.268       .  S
O170       Mg438   2.268   1_545  S
H171        C680   1.081       .  S
O172       Mg180   2.158       .  S
O172       Mg395   2.152       .  S
O172        C427   1.236       .  S
H173        C427   1.081       .  S
H174        C177   1.081       .  S
C175        H425   1.081   1_545  S
C175        O424   1.237   1_545  S
C176        H675   1.081   1_455  S
C176        O645   1.235   1_455  S
H178        C657   1.081   1_455  S
O179       Mg438   2.295   1_545  S
C182        O187   1.277       .  A
C182        C222   1.472       .  S
O183        C184   1.273       .  A
O183       Mg395   2.276       .  S
C184        C194   1.472       .  S
Mg186       O396   2.168       .  S
Mg186       O422   2.272       .  S
Mg186       O431   2.289       .  S
O188       Mg663   2.285   1_455  S
C189        C190   1.344       .  D
C189        H191   1.087       .  S
C190        H192   1.086       .  S
C193        C194   1.341       .  D
C193        H195   1.087       .  S
C194        H196   1.086       .  S
C197        C198   1.340       .  D
C197        H199   1.086       .  S
C198        H200   1.087       .  S
C201        C202   1.342       .  D
C201        H203   1.087   1_556  S
C202        H204   1.086       .  S
C205        C206   1.342       .  D
C205        H207   1.086       .  S
C206        H208   1.087   1_556  S
C209        C210   1.342       .  D
C209        H211   1.087   1_556  S
C210        H212   1.086       .  S
C213        C214   1.207       .  T
C214        C215   1.414       .  S
C215        C216   1.207       .  T
C217        C218   1.205       .  T
C218        C219   1.411       .  S
C219        C220   1.205       .  T
C221        C222   1.342       .  D
C221        H223   1.088       .  S
C222        H224   1.086       .  S
C225        C226   1.344       .  D
C225        H227   1.086       .  S
C226        H228   1.087       .  S
C229        C230   1.343       .  D
C229        H231   1.086       .  S
C230        H232   1.087       .  S
C233        C234   1.342   1_556  D
C233        H235   1.087       .  S
C234        H236   1.086       .  S
C237        C238   1.343       .  D
C237        H239   1.087   1_554  S
C238        H240   1.086       .  S
C241        C242   1.342       .  D
C241        H243   1.087   1_554  S
C242        H244   1.086       .  S
C245        C246   1.204       .  T
C246        C247   1.409       .  S
C247        C248   1.204       .  T
C249        C250   1.207       .  T
C250        C251   1.413       .  S
C251        C252   1.207       .  T
C253        C255   1.542       .  S
C253        C257   1.542       .  S
C253        C256   1.539       .  S
C253        C501   1.469       .  S
C254        C258   1.527       .  S
C254        C260   1.527       .  S
C254        C259   1.526       .  S
C254        C500   1.465       .  S
C255        C263   1.384       .  A
C255        C258   1.392   1_554  A
C256        C267   1.382       .  A
C256        C259   1.391   1_554  A
C257        C271   1.384       .  A
C257        C260   1.393   1_554  A
C258        C261   1.372       .  A
C259        C265   1.371       .  A
C260        C268   1.371       .  A
C261        N262   1.355   1_556  A
C261        H274   1.083       .  S
N262        C263   1.363       .  A
N262        C485   1.438       .  S
C263        H264   1.082       .  S
C265        N266   1.356   1_556  A
C265        H275   1.083       .  S
N266        C267   1.361       .  A
N266        C493   1.436       .  S
C267        H273   1.082       .  S
C268        N269   1.356   1_556  A
C268        H270   1.083       .  S
N269        C271   1.363       .  A
N269        C489   1.437       .  S
C271        H272   1.082       .  S
C276        C278   1.532       .  S
C276        C280   1.534       .  S
C276        C279   1.532       .  S
C276        C504   1.471       .  S
C277        C281   1.537       .  S
C277        C283   1.534       .  S
C277        C282   1.533       .  S
C277        C497   1.464       .  S
C278        C286   1.375       .  A
C278        C281   1.392       .  A
C279        C290   1.374       .  A
C279        C282   1.391       .  A
C280        C294   1.376       .  A
C280        C283   1.392       .  A
C281        C284   1.382       .  A
C282        C288   1.380       .  A
C283        C291   1.379       .  A
C284        N285   1.362       .  A
C284        H297   1.082       .  S
N285        C286   1.357       .  A
N285        C473   1.439       .  S
C286        H287   1.083       .  S
C288        N289   1.360       .  A
C288        H298   1.082       .  S
N289        C290   1.358       .  A
N289        C478   1.437       .  S
C290        H296   1.083       .  S
C291        N292   1.361       .  A
C291        H293   1.082       .  S
N292        C294   1.359       .  A
N292        C482   1.440       .  S
C294        H295   1.083       .  S
C299        C301   1.529       .  S
C299        C303   1.527       .  S
C299        C302   1.528       .  S
C299        C469   1.467       .  S
C300        C304   1.539       .  S
C300        C306   1.538       .  S
C300        C305   1.537       .  S
C300        C465   1.467       .  S
C301        C309   1.372       .  A
C301        C304   1.393   1_554  A
C302        C313   1.372       .  A
C302        C305   1.393   1_554  A
C303        C317   1.372       .  A
C303        C306   1.391   1_554  A
C304        C307   1.382       .  A
C305        C311   1.380       .  A
C306        C314   1.381       .  A
C307        N308   1.362       .  A
C307        H320   1.082       .  S
N308        C309   1.356   1_556  A
N308        C461   1.437       .  S
C309        H310   1.083       .  S
C311        N312   1.361       .  A
C311        H321   1.082       .  S
N312        C313   1.356   1_556  A
N312        C458   1.435       .  S
C313        H319   1.083       .  S
C314        N315   1.362       .  A
C314        H316   1.082       .  S
N315        C317   1.356   1_556  A
N315        C453   1.436       .  S
C317        H318   1.083       .  S
C322        C324   1.538       .  S
C322        C326   1.537       .  S
C322        C325   1.537       .  S
C322        C472   1.466       .  S
C323        C327   1.530       .  S
C323        C329   1.529       .  S
C323        C328   1.531       .  S
C323        C468   1.468       .  S
C324        C332   1.382       .  A
C324        C327   1.392       .  A
C325        C336   1.380       .  A
C325        C328   1.393       .  A
C326        C340   1.381       .  A
C326        C329   1.391       .  A
C327        C330   1.373       .  A
C328        C334   1.374       .  A
C329        C337   1.373       .  A
C330        N331   1.357       .  A
C330        H343   1.083       .  S
N331        C332   1.362       .  A
N331        C449   1.438       .  S
C332        H333   1.082       .  S
C334        N335   1.358       .  A
C334        H344   1.083       .  S
N335        C336   1.361       .  A
N335        C441   1.438       .  S
C336        H342   1.082       .  S
C337        N338   1.356       .  A
C337        H339   1.083       .  S
N338        C340   1.362       .  A
N338        C445   1.437       .  S
C340        H341   1.082       .  S
O345       Mg347   2.143       .  S
C346        H385   1.081       .  S
C346        O359   1.236       .  S
C346        O383   1.270       .  A
Mg347       O880   2.162   1_454  S
Mg347       O391   2.306   1_554  S
Mg347       O891   2.279   1_455  S
Mg347       O862   2.293   1_455  S
O348       Mg894   2.167   1_454  S
O348       Mg373   2.145       .  S
O348        C873   1.237   1_455  S
O349        C380   1.269       .  A
O349       Mg373   2.293       .  S
C350        O352   1.272       .  A
C350        O364   1.277       .  A
C350        C457   1.473       .  S
O351        C379   1.269       .  A
O352       Mg384   2.262       .  S
Mg353       O359   2.141       .  S
Mg353       O355   2.310   1_556  S
C354        O392   1.273       .  A
C354        O360   1.277   1_554  A
C354        C486   1.480       .  S
O355        C362   1.277       .  A
H356        C873   1.081   1_455  S
C357        O372   1.269       .  A
O358        C381   1.268       .  A
O358       Mg851   2.289       .  S
O359       Mg373   2.165   1_556  S
O360       Mg390   2.313       .  S
C361        O374   1.271       .  A
C361        O366   1.277       .  A
C361        C454   1.476       .  S
C362        O389   1.273       .  A
C362        C494   1.477       .  S
Mg363       O370   2.134       .  S
Mg363       O364   2.303   1_554  S
O365        C369   1.269       .  A
O366       Mg373   2.309   1_556  S
O367        C386   1.273       .  A
O368        C388   1.277       .  A
O368       Mg384   2.305   1_554  S
C369        H860   1.081       .  S
C369        O852   1.236       .  S
O370       Mg384   2.163   1_554  S
O370        C381   1.235       .  S
O371       Mg390   2.149       .  S
O372       Mg384   2.293       .  S
Mg373       O389   2.271       .  S
O374       Mg894   2.263   1_455  S
O376       Mg851   2.167   1_556  S
O376       Mg384   2.135       .  S
O376        C883   1.236       .  S
H377        C883   1.081       .  S
H378        C381   1.081       .  S
C379        H881   1.081   1_455  S
C379        O880   1.236   1_455  S
O383       Mg894   2.294   1_455  S
C386        O391   1.277       .  A
C386        C462   1.479       .  S
O387        C388   1.273       .  A
O387       Mg851   2.275       .  S
C388        C490   1.479       .  S
Mg390       O852   2.167   1_556  S
Mg390       O878   2.277       .  S
Mg390       O887   2.294       .  S
O393       Mg395   2.144       .  S
O393       Mg905   2.165       .  S
O393        C932   1.236       .  S
C394        H433   1.081       .  S
C394        O407   1.235       .  S
C394        O431   1.268       .  A
Mg395       O439   2.322       .  S
O396       Mg421   2.138       .  S
O397        C428   1.267   1_455  A
O397       Mg421   2.288       .  S
C398        O400   1.273       .  A
C398        O412   1.276       .  A
C398        C477   1.476       .  S
O399        C427   1.271       .  A
O399       Mg905   2.303       .  S
O400       Mg432   2.276       .  S
Mg401       O897   2.174       .  S
Mg401       O407   2.146   1_655  S
Mg401       O903   2.291       .  S
Mg401       O919   2.281       .  S
Mg401       O403   2.308   1_655  S
C402        O440   1.272       .  A
C402        O408   1.278       .  A
C402        C450   1.479       .  S
O403        C410   1.277       .  A
C405        H934   1.081       .  S
C405        O923   1.236       .  S
C405        O420   1.269       .  A
O406        C429   1.268       .  A
O407       Mg421   2.176       .  S
O408       Mg438   2.317       .  S
C409        O422   1.272       .  A
C409        O414   1.275       .  A
C409        C481   1.477       .  S
C410        O437   1.272       .  A
C410        C442   1.473       .  S
Mg411       O418   2.135       .  S
Mg411       O923   2.167       .  S
Mg411       O412   2.299       .  S
Mg411       O917   2.287       .  S
Mg411       O944   2.272       .  S
O413        C417   1.268   1_565  A
O413       Mg915   2.291   1_455  S
O414       Mg421   2.303       .  S
O415        C434   1.273       .  A
O415       Mg905   2.269       .  S
O416        C436   1.277       .  A
O416       Mg432   2.306       .  S
O418       Mg432   2.163       .  S
O418        C429   1.235       .  S
O419       Mg915   2.168   1_455  S
O419       Mg438   2.140       .  S
O419        C909   1.236       .  S
O420       Mg432   2.292       .  S
Mg421       O437   2.261       .  S
H423        C932   1.081       .  S
O424       Mg432   2.145       .  S
H426        C429   1.081       .  S
C428        H927   1.081       .  S
C428        O897   1.234       .  S
H430        C909   1.081       .  S
C434        O439   1.278       .  A
C434        C474   1.479       .  S
O435        C436   1.273       .  A
C436        C446   1.477       .  S
O440       Mg915   2.272   1_455  S
C441        C442   1.344       .  D
C441        H443   1.088       .  S
C442        H444   1.086       .  S
C445        C446   1.343       .  D
C445        H447   1.087       .  S
C446        H448   1.086       .  S
C449        C450   1.344       .  D
C449        H451   1.087       .  S
C450        H452   1.086       .  S
C453        C454   1.342       .  D
C453        H455   1.087   1_556  S
C454        H456   1.086       .  S
C457        C458   1.342       .  D
C457        H459   1.086       .  S
C458        H460   1.088   1_556  S
C461        C462   1.344       .  D
C461        H463   1.087   1_556  S
C462        H464   1.086       .  S
C465        C466   1.205       .  T
C466        C467   1.411       .  S
C467        C468   1.205       .  T
C469        C470   1.205       .  T
C470        C471   1.410       .  S
C471        C472   1.205       .  T
C473        C474   1.344       .  D
C473        H475   1.087       .  S
C474        H476   1.086       .  S
C477        C478   1.345       .  D
C477        H479   1.086       .  S
C478        H480   1.088       .  S
C481        C482   1.347       .  D
C481        H483   1.086       .  S
C482        H484   1.087       .  S
C485        C486   1.343       .  D
C485        H487   1.087   1_554  S
C486        H488   1.086       .  S
C489        C490   1.344       .  D
C489        H491   1.087   1_554  S
C490        H492   1.086       .  S
C493        C494   1.343       .  D
C493        H495   1.087   1_554  S
C494        H496   1.086       .  S
C497        C498   1.203       .  T
C498        C499   1.408       .  S
C499        C500   1.203       .  T
C501        C502   1.207       .  T
C502        C503   1.414       .  S
C503        C504   1.207       .  T
C505        C507   1.538       .  S
C505        C509   1.538       .  S
C505        C508   1.537       .  S
C505        C753   1.467       .  S
C506        C510   1.526       .  S
C506        C512   1.527       .  S
C506        C511   1.527       .  S
C506        C752   1.465       .  S
C507        C515   1.381       .  A
C507        C510   1.392   1_554  A
C508        C519   1.380       .  A
C508        C511   1.392   1_554  A
C509        C523   1.380       .  A
C509        C512   1.392   1_554  A
C510        C513   1.370       .  A
C511        C517   1.372       .  A
C512        C520   1.372       .  A
C513        N514   1.355   1_556  A
C513        H526   1.083       .  S
N514        C515   1.361       .  A
N514        C737   1.433       .  S
C515        H516   1.082       .  S
C517        N518   1.355   1_556  A
C517        H527   1.083       .  S
N518        C519   1.361       .  A
N518        C745   1.434       .  S
C519        H525   1.082       .  S
C520        N521   1.356   1_556  A
C520        H522   1.083       .  S
N521        C523   1.362       .  A
N521        C741   1.436       .  S
C523        H524   1.082       .  S
C528        C530   1.530       .  S
C528        C532   1.529       .  S
C528        C531   1.530       .  S
C528        C756   1.468       .  S
C529        C533   1.534       .  S
C529        C535   1.535       .  S
C529        C534   1.534       .  S
C529        C749   1.464       .  S
C530        C538   1.372       .  A
C530        C533   1.392       .  A
C531        C542   1.372       .  A
C531        C534   1.392       .  A
C532        C546   1.372       .  A
C532        C535   1.392       .  A
C533        C536   1.379       .  A
C534        C540   1.379       .  A
C535        C543   1.379       .  A
C536        N537   1.360       .  A
C536        H549   1.082       .  S
N537        C538   1.357       .  A
N537        C725   1.434       .  S
C538        H539   1.083       .  S
C540        N541   1.360       .  A
C540        H550   1.082       .  S
N541        C542   1.357       .  A
N541        C730   1.435       .  S
C542        H548   1.083       .  S
C543        N544   1.361       .  A
C543        H545   1.082       .  S
N544        C546   1.356       .  A
N544        C734   1.435       .  S
C546        H547   1.083       .  S
C551        C553   1.527       .  S
C551        C555   1.525       .  S
C551        C554   1.527       .  S
C551        C721   1.467       .  S
C552        C556   1.539       .  S
C552        C558   1.539       .  S
C552        C557   1.540       .  S
C552        C717   1.470       .  S
C553        C561   1.372       .  A
C553        C556   1.393   1_554  A
C554        C565   1.370       .  A
C554        C557   1.393   1_554  A
C555        C569   1.369       .  A
C555        C558   1.392   1_554  A
C556        C559   1.380       .  A
C557        C563   1.382       .  A
C558        C566   1.382       .  A
C559        N560   1.361       .  A
C559        H572   1.082       .  S
N560        C561   1.356   1_556  A
N560        C713   1.435       .  S
C561        H562   1.083       .  S
C563        N564   1.362       .  A
C563        H573   1.082       .  S
N564        C565   1.355   1_556  A
N564        C710   1.435       .  S
C565        H571   1.083       .  S
C566        N567   1.362       .  A
C566        H568   1.082       .  S
N567        C569   1.354   1_556  A
N567        C705   1.434       .  S
C569        H570   1.083       .  S
C574        C576   1.533       .  S
C574        C578   1.533       .  S
C574        C577   1.533       .  S
C574        C724   1.466       .  S
C575        C579   1.531       .  S
C575        C581   1.531       .  S
C575        C580   1.530       .  S
C575        C720   1.471       .  S
C576        C584   1.379       .  A
C576        C579   1.393       .  A
C577        C588   1.377       .  A
C577        C580   1.393       .  A
C578        C592   1.378       .  A
C578        C581   1.392       .  A
C579        C582   1.372       .  A
C580        C586   1.372       .  A
C581        C589   1.374       .  A
C582        N583   1.360       .  A
C582        H595   1.083       .  S
N583        C584   1.357       .  A
N583        C701   1.436       .  S
C584        H585   1.082       .  S
C586        N587   1.356       .  A
C586        H596   1.083       .  S
N587        C588   1.360       .  A
N587        C693   1.434       .  S
C588        H594   1.082       .  S
C589        N590   1.358       .  A
C589        H591   1.083       .  S
N590        C592   1.360       .  A
N590        C697   1.437       .  S
C592        H593   1.082       .  S
O597       Mg599   2.139       .  S
O597       Mg857   2.165   1_554  S
O597        C884   1.235       .  S
C598        H637   1.081       .  S
C598        O611   1.236       .  S
C598        O635   1.269       .  A
Mg599       O643   2.295   1_554  S
O600       Mg625   2.136       .  S
O601        C632   1.269       .  A
O601       Mg625   2.290       .  S
C602        O604   1.273       .  A
C602        O616   1.278       .  A
C602        C709   1.477       .  S
O603        C631   1.270       .  A
O603       Mg857   2.293       .  S
O604       Mg636   2.272       .  S
Mg605       O849   2.166   1_546  S
Mg605       O611   2.134       .  S
Mg605       O855   2.290   1_545  S
Mg605       O871   2.266   1_545  S
Mg605       O607   2.301       .  S
C606        O644   1.273       .  A
C606        O612   1.275       .  A
C606        C738   1.477       .  S
O607        C614   1.276   1_556  A
C609        H886   1.081       .  S
C609        O875   1.236       .  S
C609        O624   1.269       .  A
O610        C633   1.269       .  A
O611       Mg625   2.162   1_556  S
O612       Mg642   2.294   1_554  S
C613        O626   1.272       .  A
C613        O618   1.277       .  A
C613        C706   1.475       .  S
C614        O641   1.273       .  A
C614        C746   1.476       .  S
Mg615       O622   2.139       .  S
Mg615       O875   2.159   1_554  S
Mg615       O616   2.309   1_554  S
Mg615       O869   2.294       .  S
Mg615       O896   2.284       .  S
O617        C621   1.269   1_655  A
O617       Mg867   2.291   1_545  S
O618       Mg625   2.302   1_556  S
O619        C638   1.273       .  A
O619       Mg857   2.275       .  S
O620        C640   1.277       .  A
O620       Mg636   2.306   1_554  S
O622       Mg636   2.166   1_554  S
O622        C633   1.236       .  S
O623       Mg867   2.164   1_546  S
O623       Mg642   2.137       .  S
O623        C861   1.236   1_545  S
O624       Mg636   2.290       .  S
Mg625       O641   2.273       .  S
H627        C884   1.081       .  S
O628       Mg636   2.140       .  S
H630        C633   1.081       .  S
C632        H879   1.081   1_545  S
C632        O849   1.235   1_545  S
H634        C861   1.081   1_545  S
C638        O643   1.275       .  A
C638        C714   1.475       .  S
O639        C640   1.272       .  A
C640        C742   1.474       .  S
O644       Mg867   2.275   1_545  S
O645       Mg647   2.143       .  S
C646        H685   1.081       .  S
C646        O659   1.236       .  S
C646        O683   1.269       .  A
Mg647       O928   2.163   1_545  S
Mg647       O691   2.295       .  S
Mg647       O939   2.281   1_545  S
Mg647       O910   2.288   1_545  S
O648       Mg942   2.165   1_545  S
O648       Mg673   2.132       .  S
O648        C921   1.235   1_545  S
O649        C680   1.269       .  A
O649       Mg673   2.292       .  S
C650        O652   1.272       .  A
C650        O664   1.276       .  A
C650        C729   1.472       .  S
O651        C679   1.268       .  A
O652       Mg684   2.268       .  S
Mg653       O659   2.135       .  S
Mg653       O655   2.297       .  S
C654        O692   1.275       .  A
C654        O660   1.272       .  A
C654        C702   1.469       .  S
O655        C662   1.276       .  A
H656        C921   1.081   1_545  S
C657        O672   1.268       .  A
O658        C681   1.269       .  A
O658       Mg899   2.291       .  S
O659       Mg673   2.166       .  S
O660       Mg690   2.276       .  S
C661        O674   1.272       .  A
C661        O666   1.276       .  A
C661        C733   1.474       .  S
C662        O689   1.272       .  A
C662        C694   1.472       .  S
Mg663       O670   2.145       .  S
Mg663       O664   2.299       .  S
O665        C669   1.266       .  A
O666       Mg673   2.302       .  S
O667        C686   1.273       .  A
O668        C688   1.276       .  A
O668       Mg684   2.305       .  S
C669        H908   1.081       .  S
C669        O900   1.234       .  S
O670       Mg684   2.170       .  S
O670        C681   1.235       .  S
O671       Mg690   2.138       .  S
O672       Mg684   2.291       .  S
Mg673       O689   2.265       .  S
O674       Mg942   2.265   1_545  S
O676       Mg899   2.167       .  S
O676       Mg684   2.139       .  S
O676        C931   1.235       .  S
H677        C931   1.081       .  S
H678        C681   1.081       .  S
C679        H929   1.081   1_545  S
C679        O928   1.235   1_545  S
O683       Mg942   2.292   1_545  S
C686        O691   1.276       .  A
C686        C726   1.474       .  S
O687        C688   1.271       .  A
O687       Mg899   2.264       .  S
C688        C698   1.473       .  S
Mg690       O900   2.165       .  S
Mg690       O926   2.267       .  S
Mg690       O935   2.282       .  S
C693        C694   1.342       .  D
C693        H695   1.087       .  S
C694        H696   1.086       .  S
C697        C698   1.344       .  D
C697        H699   1.088       .  S
C698        H700   1.086       .  S
C701        C702   1.338       .  D
C701        H703   1.086       .  S
C702        H704   1.087       .  S
C705        C706   1.342       .  D
C705        H707   1.088   1_556  S
C706        H708   1.086       .  S
C709        C710   1.342       .  D
C709        H711   1.086       .  S
C710        H712   1.087   1_556  S
C713        C714   1.343       .  D
C713        H715   1.087   1_556  S
C714        H716   1.086       .  S
C717        C718   1.207       .  T
C718        C719   1.414       .  S
C719        C720   1.207       .  T
C721        C722   1.204       .  T
C722        C723   1.409       .  S
C723        C724   1.204       .  T
C725        C726   1.343       .  D
C725        H727   1.087       .  S
C726        H728   1.086       .  S
C729        C730   1.343       .  D
C729        H731   1.086       .  S
C730        H732   1.088       .  S
C733        C734   1.342       .  D
C733        H735   1.086       .  S
C734        H736   1.087       .  S
C737        C738   1.343       .  D
C737        H739   1.087   1_554  S
C738        H740   1.086       .  S
C741        C742   1.342       .  D
C741        H743   1.087   1_554  S
C742        H744   1.086       .  S
C745        C746   1.343       .  D
C745        H747   1.087   1_554  S
C746        H748   1.086       .  S
C749        C750   1.203       .  T
C750        C751   1.408       .  S
C751        C752   1.203       .  T
C753        C754   1.205       .  T
C754        C755   1.411       .  S
C755        C756   1.205       .  T
C757        C759   1.542       .  S
C757        C761   1.541       .  S
C757        C760   1.541       .  S
C757       C1005   1.469       .  S
C758        C762   1.528       .  S
C758        C764   1.527       .  S
C758        C763   1.528       .  S
C758       C1004   1.467       .  S
C759        C767   1.384       .  A
C759        C762   1.392   1_554  A
C760        C771   1.383       .  A
C760        C763   1.392   1_554  A
C761        C775   1.385       .  A
C761        C764   1.392   1_554  A
C762        C765   1.373       .  A
C763        C769   1.373       .  A
C764        C772   1.372       .  A
C765        N766   1.356   1_556  A
C765        H778   1.083       .  S
N766        C767   1.363       .  A
N766        C989   1.438       .  S
C767        H768   1.082       .  S
C769        N770   1.356   1_556  A
C769        H779   1.083       .  S
N770        C771   1.362       .  A
N770        C997   1.438       .  S
C771        H777   1.082       .  S
C772        N773   1.355   1_556  A
C772        H774   1.083       .  S
N773        C775   1.362       .  A
N773        C993   1.436       .  S
C775        H776   1.082       .  S
C780        C782   1.531       .  S
C780        C784   1.530       .  S
C780        C783   1.531       .  S
C780       C1008   1.470       .  S
C781        C785   1.534       .  S
C781        C787   1.535       .  S
C781        C786   1.534       .  S
C781       C1001   1.466       .  S
C782        C790   1.374       .  A
C782        C785   1.392       .  A
C783        C794   1.373       .  A
C783        C786   1.393       .  A
C784        C798   1.373       .  A
C784        C787   1.392       .  A
C785        C788   1.378       .  A
C786        C792   1.378       .  A
C787        C795   1.379       .  A
C788        N789   1.358       .  A
C788        H801   1.082       .  S
N789        C790   1.360       .  A
N789        C977   1.437       .  S
C790        H791   1.082       .  S
C792        N793   1.361       .  A
C792        H802   1.082       .  S
N793        C794   1.357       .  A
N793        C982   1.435       .  S
C794        H800   1.083       .  S
C795        N796   1.361       .  A
C795        H797   1.082       .  S
N796        C798   1.357       .  A
N796        C986   1.436       .  S
C798        H799   1.083       .  S
C803        C805   1.529       .  S
C803        C807   1.531       .  S
C803        C806   1.529       .  S
C803        C973   1.469       .  S
C804        C808   1.535       .  S
C804        C810   1.536       .  S
C804        C809   1.535       .  S
C804        C969   1.464       .  S
C805        C813   1.372       .  A
C805        C808   1.392   1_554  A
C806        C817   1.372       .  A
C806        C809   1.392   1_554  A
C807        C821   1.374       .  A
C807        C810   1.392   1_554  A
C808        C811   1.379       .  A
C809        C815   1.379       .  A
C810        C818   1.381       .  A
C811        N812   1.361       .  A
C811        H824   1.082       .  S
N812        C813   1.356   1_556  A
N812        C965   1.434       .  S
C813        H814   1.083       .  S
C815        N816   1.360       .  A
C815        H825   1.082       .  S
N816        C817   1.356   1_556  A
N816        C962   1.434       .  S
C817        H823   1.083       .  S
C818        N819   1.361       .  A
C818        H820   1.082       .  S
N819        C821   1.358   1_556  A
N819        C957   1.438       .  S
C821        H822   1.083       .  S
C826        C828   1.540       .  S
C826        C830   1.541       .  S
C826        C829   1.541       .  S
C826        C976   1.468       .  S
C827        C831   1.526       .  S
C827        C833   1.527       .  S
C827        C832   1.526       .  S
C827        C972   1.464       .  S
C828        C836   1.383       .  A
C828        C831   1.392       .  A
C829        C840   1.383       .  A
C829        C832   1.392       .  A
C830        C844   1.383       .  A
C830        C833   1.392       .  A
C831        C834   1.371       .  A
C832        C838   1.371       .  A
C833        C841   1.372       .  A
C834        N835   1.355       .  A
C834        H847   1.083       .  S
N835        C836   1.362       .  A
N835        C953   1.435       .  S
C836        H837   1.082       .  S
C838        N839   1.355       .  A
C838        H848   1.083       .  S
N839        C840   1.363       .  A
N839        C945   1.436       .  S
C840        H846   1.082       .  S
C841        N842   1.356       .  A
C841        H843   1.083       .  S
N842        C844   1.362       .  A
N842        C949   1.437       .  S
C844        H845   1.082       .  S
O849       Mg851   2.141       .  S
C850        H889   1.081       .  S
C850        O863   1.236       .  S
C850        O887   1.269       .  A
Mg851       O895   2.293   1_554  S
O852       Mg877   2.144       .  S
O853        C884   1.268       .  A
O853       Mg877   2.289       .  S
C854        O856   1.272       .  A
C854        O868   1.276       .  A
C854        C961   1.474       .  S
O855        C883   1.269       .  A
O856       Mg888   2.267       .  S
Mg857       O863   2.145       .  S
Mg857       O859   2.309   1_556  S
C858        O896   1.274       .  A
C858        O864   1.277       .  A
C858        C990   1.482       .  S
O859        C866   1.277       .  A
C861        O876   1.269       .  A
O862        C885   1.269       .  A
O863       Mg877   2.168   1_556  S
O864       Mg894   2.310   1_554  S
C865        O878   1.273       .  A
C865        O870   1.278       .  A
C865        C958   1.478       .  S
C866        O893   1.274       .  A
C866        C998   1.479       .  S
Mg867       O874   2.143       .  S
Mg867       O868   2.298   1_554  S
O869        C873   1.270       .  A
O870       Mg877   2.310   1_556  S
O871        C890   1.272       .  A
O872        C892   1.277       .  A
O872       Mg888   2.311   1_554  S
O874       Mg888   2.165   1_554  S
O874        C885   1.236       .  S
O875       Mg894   2.134       .  S
O876       Mg888   2.292       .  S
Mg877       O893   2.281       .  S
O880       Mg888   2.139       .  S
H882        C885   1.081       .  S
C890        O895   1.275       .  A
C890        C966   1.473       .  S
O891        C892   1.274       .  A
C892        C994   1.482       .  S
O897       Mg899   2.140       .  S
C898        H937   1.081       .  S
C898        O911   1.236       .  S
C898        O935   1.268       .  A
Mg899       O943   2.292       .  S
O900       Mg925   2.129       .  S
O901        C932   1.269       .  A
O901       Mg925   2.292       .  S
C902        O904   1.271       .  A
C902        O916   1.276       .  A
C902        C981   1.472       .  S
O903        C931   1.268       .  A
O904       Mg936   2.264       .  S
Mg905       O911   2.134       .  S
Mg905       O907   2.320       .  S
C906        O944   1.273       .  A
C906        O912   1.277       .  A
C906        C954   1.478       .  S
O907        C914   1.279       .  A
C909        O924   1.269   1_455  A
O910        C933   1.268       .  A
O911       Mg925   2.165       .  S
O912       Mg942   2.304       .  S
C913        O926   1.271       .  A
C913        O918   1.276       .  A
C913        C985   1.474       .  S
C914        O941   1.271       .  A
C914        C946   1.476       .  S
Mg915       O922   2.139       .  S
Mg915       O916   2.297       .  S
O917        C921   1.268       .  A
O918       Mg925   2.300       .  S
O919        C938   1.275       .  A
O920        C940   1.277       .  A
O920       Mg936   2.307       .  S
O922       Mg936   2.167       .  S
O922        C933   1.235       .  S
O923       Mg942   2.140       .  S
O924       Mg936   2.293       .  S
Mg925       O941   2.258       .  S
O928       Mg936   2.135       .  S
H930        C933   1.081       .  S
C938        O943   1.274       .  A
C938        C978   1.473       .  S
O939        C940   1.274       .  A
C940        C950   1.480       .  S
C945        C946   1.341       .  D
C945        H947   1.087       .  S
C946        H948   1.086       .  S
C949        C950   1.344       .  D
C949        H951   1.087       .  S
C950        H952   1.086       .  S
C953        C954   1.342       .  D
C953        H955   1.087       .  S
C954        H956   1.086       .  S
C957        C958   1.345       .  D
C957        H959   1.087   1_556  S
C958        H960   1.086       .  S
C961        C962   1.342       .  D
C961        H963   1.086       .  S
C962        H964   1.087   1_556  S
C965        C966   1.342       .  D
C965        H967   1.087   1_556  S
C966        H968   1.086       .  S
C969        C970   1.203       .  T
C970        C971   1.407       .  S
C971        C972   1.203       .  T
C973        C974   1.206       .  T
C974        C975   1.412       .  S
C975        C976   1.206       .  T
C977        C978   1.341       .  D
C977        H979   1.087       .  S
C978        H980   1.087       .  S
C981        C982   1.343       .  D
C981        H983   1.086       .  S
C982        H984   1.087       .  S
C985        C986   1.343       .  D
C985        H987   1.086       .  S
C986        H988   1.087       .  S
C989        C990   1.345       .  D
C989        H991   1.087   1_554  S
C990        H992   1.086       .  S
C993        C994   1.344       .  D
C993        H995   1.087   1_554  S
C994        H996   1.087       .  S
C997        C998   1.344       .  D
C997        H999   1.087   1_554  S
C998       H1000   1.086       .  S
C1001      C1002   1.204       .  T
C1002      C1003   1.410       .  S
C1003      C1004   1.204       .  T
C1005      C1006   1.206       .  T
C1006      C1007   1.412       .  S
C1007      C1008   1.206       .  T
