geometry optimzed in LAMMPS
_audit_creation_date              2020-12-01 
_audit_creation_method            'lammps2cif' 
_symmetry_space_group_name_H-M    'P1' 
_symmetry_Int_Tables_number       1 
_symmetry_cell_setting            triclinic 
loop_ 
_symmetry_equiv_pos_as_xyz 
  x,y,z 
_cell_length_a                    44.73745029 
_cell_length_b                    44.96726927102246 
_cell_length_c                    17.253673825558856 
_cell_angle_alpha                 89.86555293463641 
_cell_angle_beta                  90.04672348134368 
_cell_angle_gamma                 119.94197506128053 
loop_ 
_atom_site_label 
_atom_site_type_symbol 
_atom_site_fract_x 
_atom_site_fract_y 
_atom_site_fract_z 
_atom_site_charge 
C1          C  0.33389310  0.16914079  0.15064809     0.31500
C2          C  0.33250683  0.16643423  0.99174149     0.31500
C3          C  0.35072964  0.15010318  0.11327318    -0.04700
C4          C  0.29758664  0.15139527  0.11311737    -0.05500
C5          C  0.35159277  0.20416058  0.10808225    -0.05400
C6          C  0.34972463  0.14841411  0.03266070    -0.04700
C7          C  0.29698031  0.14954013  0.03220140    -0.05500
C8          C  0.35100241  0.20236615  0.02739175    -0.05400
C9          C  0.36391772  0.12859189  0.01129156    -0.30800
N10         N  0.37435234  0.11932021  0.07602971     0.15700
C11         C  0.36638413  0.13204535  0.13894256    -0.30800
H12         H  0.37130628  0.12820952  0.19852196     0.17700
C13         C  0.26276748  0.13141395  0.01017287    -0.29700
N14         N  0.24284873  0.12348966  0.07441838     0.14500
C15         C  0.26354432  0.13559228  0.13761676    -0.29700
C16         C  0.36706155  0.23536290  0.99888521    -0.30000
N17         N  0.37700903  0.25717987  0.05970727     0.15000
H18         H  0.37103582  0.24296134  0.93848664     0.17600
C19         C  0.36737193  0.23874394  0.12648873    -0.30000
H20         H  0.37116235  0.24993315  0.18358110     0.17600
H21         H  0.25439119  0.13307806  0.19662148     0.17600
H22         H  0.36616820  0.12089895  0.95320898     0.17700
H23         H  0.25280333  0.12410471  0.95196941     0.17600
C24         C  0.33571113  0.16908463  0.49160117     0.31500
C25         C  0.33467909  0.16687914  0.65062573     0.31500
C26         C  0.35368327  0.15132333  0.52938165    -0.04700
C27         C  0.35244587  0.20408433  0.53307369    -0.05500
C28         C  0.29970375  0.15061975  0.52947726    -0.05400
C29         C  0.35310519  0.14977006  0.61014967    -0.04700
C30         C  0.35218555  0.20288936  0.61388733    -0.05500
C31         C  0.29901548  0.14874357  0.61026926    -0.05400
C32         C  0.36932507  0.13148947  0.63078078    -0.30800
N33         N  0.38019379  0.12314855  0.56522707     0.15700
C34         C  0.37071981  0.13493442  0.50305281    -0.30800
H35         H  0.37580848  0.13175151  0.44320174     0.17700
C36         C  0.36770521  0.23633866  0.64027880    -0.29700
N37         N  0.37679638  0.25743188  0.57773991     0.14500
C38         C  0.36715118  0.23822056  0.51247224    -0.29700
C39         C  0.26461166  0.12969271  0.63171721    -0.30000
N40         N  0.24501038  0.12150475  0.56677300     0.15000
H41         H  0.25443762  0.12196054  0.68970635     0.17600
C42         C  0.26592489  0.13433829  0.50437256    -0.30000
H43         H  0.25693101  0.13184890  0.44524080     0.17600
H44         H  0.37019970  0.24865649  0.45462532     0.17600
H45         H  0.37275527  0.12434400  0.68859671     0.17700
H46         H  0.37182587  0.24465340  0.70010045     0.17600
C47         C  0.16688212  0.33482871  0.00836299     0.31500
C48         C  0.16440439  0.33211042  0.84950504     0.31500
C49         C  0.14863957  0.35230457  0.96903335    -0.04700
C50         C  0.20194063  0.35232430  0.96638609    -0.05500
C51         C  0.14850903  0.29890061  0.97273085    -0.05400
C52         C  0.14679347  0.35052416  0.88814902    -0.04700
C53         C  0.20062275  0.35056645  0.88573610    -0.05500
C54         C  0.14672235  0.29712337  0.89212723    -0.05400
C55         C  0.12937149  0.36734436  0.86504457    -0.30800
N56         N  0.12189191  0.37992049  0.92900254     0.15700
C57         C  0.13370943  0.37124812  0.99243783    -0.30800
H58         H  0.13192616  0.37872656  0.05104946     0.17700
C59         C  0.23421655  0.36776023  0.85887845    -0.29700
N60         N  0.25549128  0.38016507  0.92106046     0.14500
C61         C  0.23627516  0.37150883  0.98650037    -0.29700
C62         C  0.12723302  0.26258763  0.87371048    -0.30000
N63         N  0.11854218  0.24411987  0.94045401     0.15000
H64         H  0.11927964  0.25151326  0.81662158     0.17600
C65         C  0.13116652  0.26590699  0.00123523    -0.30000
H66         H  0.12765184  0.25829957  0.06162483     0.17600
H67         H  0.24684300  0.37905884  0.04418853     0.17600
H68         H  0.12270521  0.37043345  0.80645759     0.17700
H69         H  0.24252025  0.37099855  0.79902877     0.17600
C70         C  0.16728044  0.33298834  0.34940512     0.31500
C71         C  0.16542852  0.33061122  0.50840912     0.31500
C72         C  0.14872808  0.35017140  0.38902328    -0.04700
C73         C  0.14944266  0.29692781  0.38593000    -0.05500
C74         C  0.20267581  0.35094735  0.39078266    -0.05400
C75         C  0.14721972  0.34820675  0.46976794    -0.04700
C76         C  0.14812096  0.29560506  0.46675491    -0.05500
C77         C  0.20137656  0.34929979  0.47152255    -0.05400
C78         C  0.12872867  0.36348578  0.49415571    -0.30800
N79         N  0.12030019  0.37579398  0.43135204     0.15700
C80         C  0.13248889  0.36825743  0.36686767    -0.30800
H81         H  0.12981420  0.37564948  0.30869647     0.17700
C82         C  0.12990194  0.26131630  0.48699466    -0.29700
N83         N  0.12152419  0.24223145  0.42158759     0.14500
C84         C  0.13307313  0.26349444  0.35927253    -0.29700
C85         C  0.23472630  0.36681472  0.49870417    -0.30000
N86         N  0.25622230  0.37934326  0.43704408     0.15000
H87         H  0.24277093  0.37045975  0.55878400     0.16400
C88         C  0.23723540  0.37040390  0.37101143    -0.30000
H89         H  0.24797201  0.37812071  0.31347055     0.17600
H90         H  0.12992406  0.25529335  0.29942752     0.17600
H91         H  0.12165852  0.36549908  0.55305291     0.17700
H92         H  0.12277637  0.25063057  0.54468862     0.17600
O93         O  0.04308751  0.48549405  0.05314548    -0.86900
C94         C  0.05252963  0.05469808  0.88765957     0.89200
Mg95       Mg  0.00523665  0.43183595  0.04496923     1.58100
O96         O  0.01197282  0.05831230  0.05915790    -0.86600
O97         O  0.05686312  0.02850598  0.13229844    -0.73900
C98         C  0.35871396  0.42731883  0.94665851     0.94200
O99         O  0.03064622  0.47393784  0.86998674    -0.73700
O100        O  0.37403378  0.41018887  0.93704342    -0.81300
Mg101      Mg  0.07482947  0.00875397  0.95222090     1.58000
C102        C  0.42248218  0.06437885  0.04908620     0.94100
O103        O  0.12410161  0.04458401  0.02276579    -0.79500
H104        H  0.01233508  0.06337489  0.17431869    -0.04900
C105        C  0.44795215  0.50379473  0.88148950     0.89100
O106        O  0.46781611  0.43913175  0.12299488    -0.74000
O107        O  0.05839035  0.04637092  0.95183952    -0.86800
O108        O  0.45362279  0.08048744  0.02529832    -0.79600
C109        C  0.06368149  0.14107986  0.97057744     0.94200
C110        C  0.13904671  0.07497296  0.05019142     0.94100
Mg111      Mg  0.42225175  0.49212328  0.04835828     1.58000
O112        O  0.37358296  0.45725642  0.97625368    -0.79500
O113        O  0.46650100  0.02656495  0.13101480    -0.73800
O114        O  0.07932952  0.12561413  0.99449831    -0.79600
O115        O  0.09170032  0.46846137  0.94916199    -0.81300
O116        O  0.41710120  0.37586132  0.00439457    -0.79600
C117        C  0.49763937  0.05038382  0.12321878     0.88500
O118        O  0.43848649  0.45467472  0.04774174    -0.86800
O119        O  0.45401637  0.01572591  0.94787809    -0.86900
O120        O  0.44103733  0.47327943  0.86751722    -0.73900
Mg121      Mg  0.06614935  0.07483679  0.05765127     1.58000
O122        O  0.03115395  0.12587006  0.96171048    -0.81300
H123        H  0.04813741  0.48172496  0.16736251    -0.05000
O124        O  0.48506844  0.44271072  0.94181089    -0.86600
H125        H  0.48486525  0.43694940  0.82691083    -0.04900
H126        H  0.42910159  0.44642689  0.16132560    -0.05000
C127        C  0.99949457  0.45021393  0.87786959     0.88500
C128        C  0.04962493  0.99782143  0.11915128     0.89100
C129        C  0.44406988  0.44636738  0.11220117     0.89100
H130        H  0.44973822  0.02017498  0.83362550    -0.05000
O131        O  0.02889149  0.06219782  0.87780878    -0.74000
Mg132      Mg  0.43106562  0.42665988  0.94153135     1.58000
H133        H  0.06726583  0.05463123  0.83807539    -0.05000
C134        C  0.07431838  0.43589200  0.95483233     0.94100
O135        O  0.46471439  0.37511460  0.04033867    -0.81300
C136        C  0.43224398  0.36018215  0.02995166     0.94200
O137        O  0.12342307  0.09183329  0.05968375    -0.81300
Mg138      Mg  0.49139687  0.06920641  0.95677971     1.58200
O139        O  0.04309677  0.42003761  0.97822017    -0.79600
O140        O  0.40516427  0.03183527  0.05340813    -0.81300
O141        O  0.48627623  0.04399766  0.44361748    -0.86900
C142        C  0.05400479  0.05395109  0.61322976     0.89200
Mg143      Mg  0.43233298  0.00662328  0.45014218     1.58100
O144        O  0.05958133  0.01335962  0.44449810    -0.86600
O145        O  0.03015506  0.05753219  0.36640829    -0.73900
C146        C  0.42557744  0.36044370  0.55285295     0.94200
O147        O  0.47310808  0.03203628  0.62668870    -0.73700
O148        O  0.40866680  0.37607972  0.56086527    -0.81300
Mg149      Mg  0.00864455  0.07579936  0.54439764     1.58000
C150        C  0.06569383  0.42448451  0.45968885     0.94100
O151        O  0.04471084  0.12430284  0.47311616    -0.79500
H152        H  0.06587972  0.01339775  0.32976542    -0.04900
C153        C  0.50256200  0.44936519  0.62097703     0.89100
O154        O  0.44018546  0.46920419  0.37403112    -0.74000
O155        O  0.04642551  0.05966175  0.54804268    -0.86800
O156        O  0.08156984  0.45550933  0.48311201    -0.79600
C157        C  0.14163020  0.06543615  0.53712152     0.94200
C158        C  0.07535793  0.13933989  0.44631657     0.94100
Mg159      Mg  0.49271854  0.42387926  0.45468274     1.58000
O160        O  0.45619316  0.37505251  0.52564495    -0.79500
O161        O  0.02841163  0.46792062  0.37285759    -0.73800
O162        O  0.12625681  0.08071576  0.51040047    -0.79600
O163        O  0.46834800  0.09259692  0.54443110    -0.81300
O164        O  0.37516806  0.41930416  0.49111792    -0.79600
C165        C  0.05227781  0.49891765  0.38070243     0.88500
O166        O  0.45500463  0.44004421  0.45149972    -0.86800
O167        O  0.01537765  0.45561151  0.55532231    -0.86900
O168        O  0.47170225  0.44238238  0.63289364    -0.73900
Mg169      Mg  0.07601024  0.06722473  0.44386876     1.58000
O170        O  0.12641792  0.03308146  0.54678413    -0.81300
H171        H  0.48338434  0.04860719  0.32893787    -0.05000
O172        O  0.44227371  0.48664036  0.55484810    -0.86600
H173        H  0.43560425  0.48651417  0.66945229    -0.04900
H174        H  0.44781986  0.43061338  0.33781915    -0.05000
C175        C  0.44932800  0.00103788  0.61866495     0.88500
C176        C  0.99919822  0.05031217  0.37804684     0.89100
C177        C  0.44732197  0.44556642  0.38627083     0.89100
H178        H  0.01840875  0.45096944  0.66993589    -0.05000
O179        O  0.06124837  0.03035302  0.62516974    -0.74000
Mg180      Mg  0.42573102  0.43285526  0.55606981     1.58000
H181        H  0.05337000  0.06873106  0.66189472    -0.05000
C182        C  0.43569355  0.07522405  0.53790049     0.94100
O183        O  0.37529665  0.46688390  0.45325353    -0.81300
C184        C  0.35984733  0.43463914  0.46448634     0.94200
O185        O  0.09281778  0.12419489  0.43913616    -0.81300
Mg186      Mg  0.06932902  0.49308157  0.54885863     1.58200
O187        O  0.41998753  0.04418323  0.51480989    -0.79600
O188        O  0.03300672  0.40713774  0.45386427    -0.81300
C189        C  0.10499060  0.20618666  0.42083541    -0.11800
C190        C  0.09128815  0.17533796  0.42753931    -0.13400
C191        C  0.32336638  0.41488168  0.44930636    -0.11800
C192        C  0.29238604  0.39852342  0.44169532    -0.13400
C193        C  0.08543853  0.40800517  0.44224838    -0.11800
C194        C  0.10170222  0.39335613  0.43421971    -0.13400
C195        C  0.08340303  0.17738556  0.95522355    -0.11800
C196        C  0.09956500  0.20817033  0.94656356    -0.13400
C197        C  0.29170912  0.39754346  0.92029947    -0.11800
C198        C  0.32268433  0.41166807  0.92736423    -0.13400
C199        C  0.10513168  0.39937056  0.93072694    -0.11800
C200        C  0.09093203  0.41615902  0.93777109    -0.13400
C201        C  0.16704306  0.30550449  0.72086718    -0.11900
C202        C  0.16532847  0.33177842  0.76119013     0.10300
C203        C  0.17062891  0.36064193  0.71837125    -0.11900
C204        C  0.17133603  0.36041491  0.63746417    -0.11900
C205        C  0.16640888  0.33119139  0.59686970     0.10300
C206        C  0.16757298  0.30521414  0.63987846    -0.11900
H207        H  0.16915902  0.28567673  0.75150849     0.14300
H208        H  0.17491763  0.38375468  0.74722880     0.14300
H209        H  0.17612869  0.38338632  0.60682645     0.14300
H210        H  0.17017911  0.28526450  0.61153884     0.14300
C211        C  0.19304959  0.33110481  0.21870311    -0.11900
C212        C  0.16694380  0.33248027  0.26102779     0.10300
C213        C  0.13795291  0.32827994  0.21977351    -0.11900
C214        C  0.13805597  0.32919961  0.13886877    -0.11900
C215        C  0.16702471  0.33400996  0.09672158     0.10300
C216        C  0.19298436  0.33166492  0.13771124    -0.11900
H217        H  0.21304500  0.32855353  0.24776768     0.14300
H218        H  0.11483662  0.32370175  0.24976717     0.14300
H219        H  0.11505717  0.32537625  0.10947018     0.14300
H220        H  0.21276629  0.32918015  0.10759903     0.14300
C221        C  0.39907594  0.10588379  0.56144184    -0.11800
C222        C  0.41572862  0.09160202  0.55399665    -0.13400
C223        C  0.39398412  0.29349405  0.57823200    -0.11800
C224        C  0.40883161  0.32438251  0.57133467    -0.13400
C225        C  0.17791614  0.08546024  0.55438644    -0.11800
C226        C  0.20883201  0.10215300  0.56296889    -0.13400
C227        C  0.40576984  0.08370264  0.06811860    -0.11800
C228        C  0.39120305  0.10004097  0.07570963    -0.13400
C229        C  0.39541121  0.29314370  0.05373172    -0.11800
C230        C  0.41191873  0.32392248  0.04528212    -0.13400
C231        C  0.20654461  0.10606556  0.07379561    -0.11800
C232        C  0.17545670  0.09144537  0.06726122    -0.13400
C233        C  0.30855328  0.17072134  0.86051850    -0.11900
C234        C  0.33329925  0.16710275  0.90334130     0.10300
C235        C  0.36199654  0.17016642  0.86281551    -0.11900
C236        C  0.36261101  0.17029473  0.78185202    -0.11900
C237        C  0.33463802  0.16759465  0.73899546     0.10300
C238        C  0.30923670  0.17099676  0.77955705    -0.11900
H239        H  0.28912808  0.17428693  0.88922626     0.14300
H240        H  0.38446058  0.17327671  0.89342543     0.14300
H241        H  0.38548625  0.17349251  0.75320947     0.14300
H242        H  0.29018158  0.17458471  0.74894748     0.14300
C243        C  0.31196025  0.13973579  0.28088965    -0.11900
C244        C  0.33535582  0.16903823  0.23892471     0.10300
C245        C  0.36309425  0.19537003  0.27996987    -0.11900
C246        C  0.36368730  0.19522784  0.36097299    -0.11900
C247        C  0.33659208  0.16872007  0.40317418     0.10300
C248        C  0.31274758  0.13948363  0.36178434    -0.11900
H249        H  0.29323273  0.11674383  0.25124901     0.14300
H250        H  0.38503626  0.21554775  0.24999113     0.14300
H251        H  0.38596579  0.21536706  0.39002545     0.14300
H252        H  0.29473311  0.11620321  0.39174547     0.14300
C253        C  0.33389304  0.66914079  0.15064807     0.31500
C254        C  0.33250678  0.66643421  0.99174149     0.31500
C255        C  0.35072957  0.65010313  0.11327314    -0.04700
C256        C  0.29758657  0.65139530  0.11311739    -0.05500
C257        C  0.35159271  0.70416058  0.10808224    -0.05400
C258        C  0.34972459  0.64841409  0.03266068    -0.04700
C259        C  0.29698025  0.64954013  0.03220141    -0.05500
C260        C  0.35100234  0.70236615  0.02739173    -0.05400
C261        C  0.36391776  0.62859191  0.01129153    -0.30800
N262        N  0.37435239  0.61932024  0.07602972     0.15700
C263        C  0.36638405  0.63204528  0.13894252    -0.30800
H264        H  0.37130612  0.62820938  0.19852203     0.17700
C265        C  0.26276742  0.63141386  0.01017288    -0.29700
N266        N  0.24284867  0.62348961  0.07441834     0.14500
C267        C  0.26354423  0.63559229  0.13761678    -0.29700
C268        C  0.36706156  0.73536293  0.99888519    -0.30000
N269        N  0.37700911  0.75717991  0.05970732     0.15000
H270        H  0.37103588  0.74296141  0.93848671     0.17600
C271        C  0.36737196  0.73874394  0.12648872    -0.30000
H272        H  0.37116247  0.74993318  0.18358119     0.17600
H273        H  0.25439104  0.63307799  0.19662139     0.17600
H274        H  0.36616829  0.62089900  0.95320901     0.17700
H275        H  0.25280325  0.62410453  0.95196944     0.17600
C276        C  0.33571112  0.66908463  0.49160117     0.31500
C277        C  0.33467905  0.66687915  0.65062573     0.31500
C278        C  0.35368323  0.65132332  0.52938170    -0.04700
C279        C  0.35244587  0.70408433  0.53307365    -0.05500
C280        C  0.29970373  0.65061971  0.52947727    -0.05400
C281        C  0.35310514  0.64977004  0.61014970    -0.04700
C282        C  0.35218556  0.70288935  0.61388728    -0.05500
C283        C  0.29901545  0.64874356  0.61026928    -0.05400
C284        C  0.36932505  0.63148947  0.63078080    -0.30800
N285        N  0.38019375  0.62314854  0.56522704     0.15700
C286        C  0.37071971  0.63493437  0.50305282    -0.30800
H287        H  0.37580824  0.63175137  0.44320170     0.17700
C288        C  0.36770523  0.73633862  0.64027877    -0.29700
N289        N  0.37679643  0.75743187  0.57773993     0.14500
C290        C  0.36715123  0.73822056  0.51247223    -0.29700
C291        C  0.26461164  0.62969263  0.63171722    -0.30000
N292        N  0.24501037  0.62150463  0.56677301     0.15000
H293        H  0.25443758  0.62196042  0.68970636     0.17600
C294        C  0.26592487  0.63433819  0.50437256    -0.30000
H295        H  0.25693098  0.63184880  0.44524081     0.17600
H296        H  0.37019975  0.74865648  0.45462533     0.17600
H297        H  0.37275531  0.62434408  0.68859670     0.17700
H298        H  0.37182580  0.74465331  0.70010051     0.17600
C299        C  0.16688214  0.83482874  0.00836298     0.31500
C300        C  0.16440439  0.83211043  0.84950506     0.31500
C301        C  0.14863964  0.85230466  0.96903335    -0.04700
C302        C  0.20194066  0.85232437  0.96638611    -0.05500
C303        C  0.14850907  0.79890062  0.97273084    -0.05400
C304        C  0.14679348  0.85052420  0.88814901    -0.04700
C305        C  0.20062278  0.85056652  0.88573610    -0.05500
C306        C  0.14672238  0.79712338  0.89212727    -0.05400
C307        C  0.12937143  0.86734436  0.86504458    -0.30800
N308        N  0.12189200  0.87992061  0.92900256     0.15700
C309        C  0.13370955  0.87124827  0.99243786    -0.30800
H310        H  0.13192628  0.87872671  0.05104944     0.17700
C311        C  0.23421657  0.86776036  0.85887847    -0.29700
N312        N  0.25549133  0.88016520  0.92106045     0.14500
C313        C  0.23627519  0.87150898  0.98650036    -0.29700
C314        C  0.12723305  0.76258762  0.87371047    -0.30000
N315        N  0.11854223  0.74411985  0.94045399     0.15000
H316        H  0.11927963  0.75151328  0.81662166     0.17600
C317        C  0.13116657  0.76590697  0.00123519    -0.30000
H318        H  0.12765188  0.75829952  0.06162477     0.17600
H319        H  0.24684305  0.87905899  0.04418854     0.17600
H320        H  0.12270507  0.87043341  0.80645768     0.17700
H321        H  0.24252027  0.87099872  0.79902870     0.17600
C322        C  0.16728041  0.83298831  0.34940511     0.31500
C323        C  0.16542853  0.83061121  0.50840911     0.31500
C324        C  0.14872804  0.85017137  0.38902329    -0.04700
C325        C  0.14944261  0.79692779  0.38592998    -0.05500
C326        C  0.20267577  0.85094733  0.39078266    -0.05400
C327        C  0.14721976  0.84820680  0.46976797    -0.04700
C328        C  0.14812095  0.79560507  0.46675489    -0.05500
C329        C  0.20137655  0.84929975  0.47152254    -0.05400
C330        C  0.12872875  0.86348590  0.49415570    -0.30800
N331        N  0.12030019  0.87579402  0.43135200     0.15700
C332        C  0.13248886  0.86825740  0.36686768    -0.30800
H333        H  0.12981423  0.87564947  0.30869640     0.17700
C334        C  0.12990193  0.76131633  0.48699469    -0.29700
N335        N  0.12152412  0.74223144  0.42158766     0.14500
C336        C  0.13307309  0.76349440  0.35927256    -0.29700
C337        C  0.23472629  0.86681465  0.49870415    -0.30000
N338        N  0.25622227  0.87934320  0.43704405     0.15000
H339        H  0.24277095  0.87045973  0.55878395     0.16400
C340        C  0.23723535  0.87040397  0.37101141    -0.30000
H341        H  0.24797193  0.87812087  0.31347061     0.17600
H342        H  0.12992409  0.75529327  0.29942759     0.17600
H343        H  0.12165870  0.86549933  0.55305293     0.17700
H344        H  0.12277641  0.75063064  0.54468869     0.17600
O345        O  0.04308733  0.98549401  0.05314550    -0.86900
C346        C  0.05252967  0.55469811  0.88765962     0.89200
Mg347      Mg  0.00523658  0.93183595  0.04496919     1.58100
O348        O  0.01197286  0.55831227  0.05915783    -0.86600
O349        O  0.05686300  0.52850594  0.13229849    -0.73900
C350        C  0.35871397  0.92731886  0.94665851     0.94200
O351        O  0.03064608  0.97393776  0.86998666    -0.73700
O352        O  0.37403372  0.91018882  0.93704348    -0.81300
Mg353      Mg  0.07482954  0.50875404  0.95222088     1.58000
C354        C  0.42248219  0.56437886  0.04908620     0.94100
O355        O  0.12410162  0.54458394  0.02276579    -0.79500
H356        H  0.01233517  0.56337502  0.17431850    -0.04900
C357        C  0.44795221  0.00379470  0.88148946     0.89100
O358        O  0.46781620  0.93913187  0.12299481    -0.74000
O359        O  0.05839029  0.54637088  0.95183959    -0.86800
O360        O  0.45362280  0.58048747  0.02529820    -0.79600
C361        C  0.06368155  0.64107987  0.97057745     0.94200
C362        C  0.13904671  0.57497287  0.05019142     0.94100
Mg363      Mg  0.42225174  0.99212327  0.04835825     1.58000
O364        O  0.37358304  0.95725647  0.97625360    -0.79500
O365        O  0.46650105  0.52656504  0.13101485    -0.73800
O366        O  0.07932959  0.62561415  0.99449835    -0.79600
O367        O  0.09170028  0.96846132  0.94916203    -0.81300
O368        O  0.41710121  0.87586137  0.00439456    -0.79600
C369        C  0.49763945  0.55038391  0.12321880     0.88500
O370        O  0.43848636  0.95467462  0.04774179    -0.86800
O371        O  0.45401637  0.51572592  0.94787811    -0.86900
O372        O  0.44103737  0.97327938  0.86751723    -0.73900
Mg373      Mg  0.06614935  0.57483675  0.05765127     1.58000
O374        O  0.03115401  0.62587007  0.96171049    -0.81300
H375        H  0.04813724  0.98172490  0.16736256    -0.05000
O376        O  0.48506849  0.94271078  0.94181097    -0.86600
H377        H  0.48486526  0.93694929  0.82691097    -0.04900
H378        H  0.42910163  0.94642689  0.16132574    -0.05000
C379        C  0.99949441  0.95021388  0.87786961     0.88500
C380        C  0.04962503  0.49782146  0.11915130     0.89100
C381        C  0.44406989  0.94636738  0.11220121     0.89100
H382        H  0.44973804  0.52017502  0.83362555    -0.05000
O383        O  0.02889148  0.56219779  0.87780866    -0.74000
Mg384      Mg  0.43106562  0.92665986  0.94153135     1.58000
H385        H  0.06726601  0.55463142  0.83807561    -0.05000
C386        C  0.07431838  0.93589196  0.95483236     0.94100
O387        O  0.46471441  0.87511468  0.04033873    -0.81300
C388        C  0.43224401  0.86018222  0.02995167     0.94200
O389        O  0.12342306  0.59183319  0.05968375    -0.81300
Mg390      Mg  0.49139691  0.56920642  0.95677970     1.58200
O391        O  0.04309675  0.92003754  0.97822017    -0.79600
O392        O  0.40516428  0.53183527  0.05340819    -0.81300
O393        O  0.48627617  0.54399771  0.44361735    -0.86900
C394        C  0.05400481  0.55395107  0.61322973     0.89200
Mg395      Mg  0.43233289  0.50662324  0.45014216     1.58100
O396        O  0.05958136  0.51335963  0.44449805    -0.86600
O397        O  0.03015514  0.55753226  0.36640829    -0.73900
C398        C  0.42557747  0.86044366  0.55285295     0.94200
O399        O  0.47310798  0.53203626  0.62668860    -0.73700
O400        O  0.40866684  0.87607970  0.56086527    -0.81300
Mg401      Mg  0.00864456  0.57579932  0.54439763     1.58000
C402        C  0.06569387  0.92448459  0.45968883     0.94100
O403        O  0.04471086  0.62430278  0.47311615    -0.79500
H404        H  0.06587962  0.51339773  0.32976527    -0.04900
C405        C  0.50256195  0.94936510  0.62097706     0.89100
O406        O  0.44018563  0.96920432  0.37403119    -0.74000
O407        O  0.04642548  0.55966167  0.54804265    -0.86800
O408        O  0.08156988  0.95550939  0.48311209    -0.79600
C409        C  0.14163016  0.56543617  0.53712156     0.94200
C410        C  0.07535796  0.63933984  0.44631658     0.94100
Mg411      Mg  0.49271855  0.92387924  0.45468271     1.58000
O412        O  0.45619318  0.87505245  0.52564492    -0.79500
O413        O  0.02841165  0.96792061  0.37285752    -0.73800
O414        O  0.12625671  0.58071572  0.51040053    -0.79600
O415        O  0.46834799  0.59259684  0.54443111    -0.81300
O416        O  0.37516801  0.91930409  0.49111802    -0.79600
C417        C  0.05227784  0.99891765  0.38070246     0.88500
O418        O  0.45500463  0.94004417  0.45149966    -0.86800
O419        O  0.01537765  0.95561145  0.55532236    -0.86900
O420        O  0.47170220  0.94238236  0.63289358    -0.73900
Mg421      Mg  0.07601024  0.56722471  0.44386875     1.58000
O422        O  0.12641794  0.53308148  0.54678414    -0.81300
H423        H  0.48338437  0.54860705  0.32893763    -0.05000
O424        O  0.44227378  0.98664043  0.55484805    -0.86600
H425        H  0.43560427  0.98651425  0.66945221    -0.04900
H426        H  0.44781998  0.93061351  0.33781893    -0.05000
C427        C  0.44932796  0.50103783  0.61866496     0.88500
C428        C  0.99919828  0.55031218  0.37804681     0.89100
C429        C  0.44732207  0.94556651  0.38627083     0.89100
H430        H  0.01840872  0.95096935  0.66993603    -0.05000
O431        O  0.06124847  0.53035306  0.62516979    -0.74000
Mg432      Mg  0.42573104  0.93285528  0.55606977     1.58000
H433        H  0.05337001  0.56873108  0.66189464    -0.05000
C434        C  0.43569354  0.57522397  0.53790052     0.94100
O435        O  0.37529667  0.96688385  0.45325346    -0.81300
C436        C  0.35984731  0.93463908  0.46448634     0.94200
O437        O  0.09281780  0.62419483  0.43913616    -0.81300
Mg438      Mg  0.06932901  0.99308157  0.54885865     1.58200
O439        O  0.41998750  0.54418316  0.51480992    -0.79600
O440        O  0.03300674  0.90713781  0.45386422    -0.81300
C441        C  0.10499060  0.70618664  0.42083552    -0.11800
C442        C  0.09128820  0.67533793  0.42753936    -0.13400
C443        C  0.32336635  0.91488162  0.44930631    -0.11800
C444        C  0.29238601  0.89852332  0.44169526    -0.13400
C445        C  0.08543858  0.90800526  0.44224832    -0.11800
C446        C  0.10170229  0.89335623  0.43421966    -0.13400
C447        C  0.08340308  0.67738555  0.95522351    -0.11800
C448        C  0.09956504  0.70817031  0.94656351    -0.13400
C449        C  0.29170914  0.89754348  0.92029947    -0.11800
C450        C  0.32268436  0.91166815  0.92736425    -0.13400
C451        C  0.10513181  0.89937070  0.93072696    -0.11800
C452        C  0.09093211  0.91615909  0.93777110    -0.13400
C453        C  0.16704295  0.80550439  0.72086722    -0.11900
C454        C  0.16532845  0.83177837  0.76119014     0.10300
C455        C  0.17062892  0.86064188  0.71837122    -0.11900
C456        C  0.17133604  0.86041484  0.63746420    -0.11900
C457        C  0.16640890  0.83119135  0.59686968     0.10300
C458        C  0.16757295  0.80521407  0.63987847    -0.11900
H459        H  0.16915887  0.78567661  0.75150852     0.14300
H460        H  0.17491765  0.88375464  0.74722874     0.14300
H461        H  0.17612874  0.88338631  0.60682649     0.14300
H462        H  0.17017914  0.78526445  0.61153887     0.14300
C463        C  0.19304964  0.83110485  0.21870310    -0.11900
C464        C  0.16694380  0.83248026  0.26102778     0.10300
C465        C  0.13795296  0.82828001  0.21977349    -0.11900
C466        C  0.13805594  0.82919957  0.13886873    -0.11900
C467        C  0.16702471  0.83400991  0.09672157     0.10300
C468        C  0.19298436  0.83166490  0.13771122    -0.11900
H469        H  0.21304511  0.82855366  0.24776766     0.14300
H470        H  0.11483667  0.82370187  0.24976716     0.14300
H471        H  0.11505722  0.82537624  0.10947026     0.14300
H472        H  0.21276629  0.82918014  0.10759899     0.14300
C473        C  0.39907592  0.60588375  0.56144178    -0.11800
C474        C  0.41572859  0.59160197  0.55399666    -0.13400
C475        C  0.39398416  0.79349402  0.57823206    -0.11800
C476        C  0.40883164  0.82438248  0.57133471    -0.13400
C477        C  0.17791611  0.58546031  0.55438639    -0.11800
C478        C  0.20883199  0.60215295  0.56296886    -0.13400
C479        C  0.40576982  0.58370263  0.06811865    -0.11800
C480        C  0.39120305  0.60004096  0.07570968    -0.13400
C481        C  0.39541130  0.79314374  0.05373173    -0.11800
C482        C  0.41191880  0.82392254  0.04528207    -0.13400
C483        C  0.20654456  0.60606546  0.07379558    -0.11800
C484        C  0.17545666  0.59144525  0.06726123    -0.13400
C485        C  0.30855320  0.67072126  0.86051854    -0.11900
C486        C  0.33329919  0.66710272  0.90334131     0.10300
C487        C  0.36199655  0.67016655  0.86281551    -0.11900
C488        C  0.36261102  0.67029491  0.78185201    -0.11900
C489        C  0.33463799  0.66759473  0.73899546     0.10300
C490        C  0.30923659  0.67099669  0.77955708    -0.11900
H491        H  0.28912798  0.67428684  0.88922638     0.14300
H492        H  0.38446062  0.67327689  0.89342544     0.14300
H493        H  0.38548628  0.67349272  0.75320942     0.14300
H494        H  0.29018144  0.67458457  0.74894756     0.14300
C495        C  0.31196027  0.63973583  0.28088968    -0.11900
C496        C  0.33535585  0.66903822  0.23892468     0.10300
C497        C  0.36309431  0.69536999  0.27996986    -0.11900
C498        C  0.36368734  0.69522781  0.36097297    -0.11900
C499        C  0.33659210  0.66872006  0.40317419     0.10300
C500        C  0.31274760  0.63948366  0.36178427    -0.11900
H501        H  0.29323263  0.61674382  0.25124890     0.14300
H502        H  0.38503631  0.71554773  0.24999110     0.14300
H503        H  0.38596582  0.71536707  0.39002548     0.14300
H504        H  0.29473303  0.61620318  0.39174551     0.14300
C505        C  0.83389306  0.16914080  0.15064809     0.31500
C506        C  0.83250681  0.16643423  0.99174148     0.31500
C507        C  0.85072959  0.15010318  0.11327315    -0.04700
C508        C  0.79758660  0.15139530  0.11311740    -0.05500
C509        C  0.85159272  0.20416058  0.10808225    -0.05400
C510        C  0.84972463  0.14841414  0.03266067    -0.04700
C511        C  0.79698029  0.14954013  0.03220141    -0.05500
C512        C  0.85100237  0.20236615  0.02739174    -0.05400
C513        C  0.86391775  0.12859194  0.01129156    -0.30800
N514        N  0.87435227  0.11932020  0.07602976     0.15700
C515        C  0.86638403  0.13204532  0.13894259    -0.30800
H516        H  0.87130613  0.12820949  0.19852202     0.17700
C517        C  0.76276747  0.13141393  0.01017286    -0.29700
N518        N  0.74284872  0.12348968  0.07441833     0.14500
C519        C  0.76354427  0.13559231  0.13761678    -0.29700
C520        C  0.86706155  0.23536290  0.99888520    -0.30000
N521        N  0.87700900  0.25717987  0.05970726     0.15000
H522        H  0.87103588  0.24296134  0.93848664     0.17600
C523        C  0.86737195  0.23874394  0.12648873    -0.30000
H524        H  0.87116246  0.24993316  0.18358111     0.17600
H525        H  0.75439108  0.13307802  0.19662141     0.17600
H526        H  0.86616830  0.12089903  0.95320900     0.17700
H527        H  0.75280332  0.12410461  0.95196940     0.17600
C528        C  0.83571110  0.16908465  0.49160116     0.31500
C529        C  0.83467907  0.16687915  0.65062572     0.31500
C530        C  0.85368317  0.15132328  0.52938165    -0.04700
C531        C  0.85244590  0.20408434  0.53307369    -0.05500
C532        C  0.79970372  0.15061982  0.52947725    -0.05400
C533        C  0.85310513  0.14977002  0.61014967    -0.04700
C534        C  0.85218564  0.20288937  0.61388733    -0.05500
C535        C  0.79901547  0.14874362  0.61026924    -0.05400
C536        C  0.86932508  0.13148948  0.63078078    -0.30800
N537        N  0.88019376  0.12314854  0.56522702     0.15700
C538        C  0.87071972  0.13493438  0.50305280    -0.30800
H539        H  0.87580838  0.13175150  0.44320171     0.17700
C540        C  0.86770531  0.23633866  0.64027880    -0.29700
N541        N  0.87679642  0.25743189  0.57773991     0.14500
C542        C  0.86715114  0.23822056  0.51247225    -0.29700
C543        C  0.76461167  0.12969268  0.63171721    -0.30000
N544        N  0.74501037  0.12150469  0.56677304     0.15000
H545        H  0.75443765  0.12196045  0.68970637     0.17600
C546        C  0.76592485  0.13433831  0.50437255    -0.30000
H547        H  0.75693096  0.13184890  0.44524086     0.17600
H548        H  0.87019948  0.24865646  0.45462535     0.17600
H549        H  0.87275535  0.12434408  0.68859664     0.17700
H550        H  0.87182589  0.24465339  0.70010045     0.17600
C551        C  0.66688214  0.33482869  0.00836298     0.31500
C552        C  0.66440440  0.33211041  0.84950503     0.31500
C553        C  0.64863960  0.35230455  0.96903332    -0.04700
C554        C  0.70194062  0.35232427  0.96638610    -0.05500
C555        C  0.64850906  0.29890060  0.97273084    -0.05400
C556        C  0.64679347  0.35052413  0.88814899    -0.04700
C557        C  0.70062274  0.35056643  0.88573611    -0.05500
C558        C  0.64672239  0.29712336  0.89212722    -0.05400
C559        C  0.62937147  0.36734433  0.86504456    -0.30800
N560        N  0.62189198  0.37992050  0.92900258     0.15700
C561        C  0.63370951  0.37124815  0.99243784    -0.30800
H562        H  0.63192629  0.37872661  0.05104947     0.17700
C563        C  0.73421653  0.36776026  0.85887845    -0.29700
N564        N  0.75549124  0.38016511  0.92106047     0.14500
C565        C  0.73627513  0.37150886  0.98650037    -0.29700
C566        C  0.62723300  0.26258762  0.87371049    -0.30000
N567        N  0.61854221  0.24411986  0.94045401     0.15000
H568        H  0.61927953  0.25151328  0.81662160     0.17600
C569        C  0.63116651  0.26590699  0.00123522    -0.30000
H570        H  0.62765178  0.25829957  0.06162484     0.17600
H571        H  0.74684296  0.37905891  0.04418855     0.17600
H572        H  0.62270516  0.37043343  0.80645769     0.17700
H573        H  0.74252024  0.37099861  0.79902875     0.17600
C574        C  0.66728042  0.33298833  0.34940513     0.31500
C575        C  0.66542856  0.33061121  0.50840913     0.31500
C576        C  0.64872806  0.35017136  0.38902330    -0.04700
C577        C  0.64944263  0.29692780  0.38593000    -0.05500
C578        C  0.70267579  0.35094736  0.39078267    -0.05400
C579        C  0.64721972  0.34820672  0.46976797    -0.04700
C580        C  0.64812103  0.29560505  0.46675492    -0.05500
C581        C  0.70137658  0.34929978  0.47152255    -0.05400
C582        C  0.62872873  0.36348580  0.49415572    -0.30800
N583        N  0.62030026  0.37579403  0.43135205     0.15700
C584        C  0.63248894  0.36825746  0.36686770    -0.30800
H585        H  0.62981428  0.37564954  0.30869648     0.17700
C586        C  0.62990199  0.26131629  0.48699467    -0.29700
N587        N  0.62152410  0.24223144  0.42158759     0.14500
C588        C  0.63307301  0.26349443  0.35927252    -0.29700
C589        C  0.73472633  0.36681471  0.49870416    -0.30000
N590        N  0.75622230  0.37934329  0.43704403     0.15000
H591        H  0.74277099  0.37045973  0.55878392     0.16400
C592        C  0.73723538  0.37040396  0.37101142    -0.30000
H593        H  0.74797195  0.37812076  0.31347052     0.17600
H594        H  0.62992389  0.25529335  0.29942750     0.17600
H595        H  0.62165859  0.36549914  0.55305293     0.17700
H596        H  0.62277646  0.25063057  0.54468864     0.17600
O597        O  0.54308739  0.48549405  0.05314546    -0.86900
C598        C  0.55252962  0.05469808  0.88765953     0.89200
Mg599      Mg  0.50523663  0.43183596  0.04496918     1.58100
O600        O  0.51197289  0.05831231  0.05915786    -0.86600
O601        O  0.55686307  0.02850596  0.13229843    -0.73900
C602        C  0.85871394  0.42731882  0.94665848     0.94200
O603        O  0.53064612  0.47393784  0.86998675    -0.73700
O604        O  0.87403374  0.41018884  0.93704337    -0.81300
Mg605      Mg  0.57482954  0.00875398  0.95222089     1.58000
C606        C  0.92248212  0.06437885  0.04908617     0.94100
O607        O  0.62410167  0.04458401  0.02276578    -0.79500
H608        H  0.51233520  0.06337488  0.17431866    -0.04900
C609        C  0.94795218  0.50379471  0.88148950     0.89100
O610        O  0.96781604  0.43913176  0.12299485    -0.74000
O611        O  0.55839032  0.04637089  0.95183953    -0.86800
O612        O  0.95362274  0.08048747  0.02529824    -0.79600
C613        C  0.56368153  0.14107982  0.97057743     0.94200
C614        C  0.63904676  0.07497296  0.05019142     0.94100
Mg615      Mg  0.92225168  0.49212328  0.04835828     1.58000
O616        O  0.87358297  0.45725641  0.97625365    -0.79500
O617        O  0.96650090  0.02656495  0.13101482    -0.73800
O618        O  0.57932961  0.12561413  0.99449827    -0.79600
O619        O  0.59170038  0.46846137  0.94916198    -0.81300
O620        O  0.91710119  0.37586134  0.00439450    -0.79600
C621        C  0.99763927  0.05038382  0.12321880     0.88500
O622        O  0.93848640  0.45467472  0.04774174    -0.86800
O623        O  0.95401644  0.01572595  0.94787819    -0.86900
O624        O  0.94103746  0.47327945  0.86751725    -0.73900
Mg625      Mg  0.56614940  0.07483678  0.05765126     1.58000
O626        O  0.53115398  0.12586998  0.96171049    -0.81300
H627        H  0.54813731  0.48172490  0.16736250    -0.05000
O628        O  0.98506853  0.44271073  0.94181090    -0.86600
H629        H  0.98486536  0.43694939  0.82691084    -0.04900
H630        H  0.92910152  0.44642690  0.16132552    -0.05000
C631        C  0.49949447  0.45021394  0.87786957     0.88500
C632        C  0.54962497  0.99782143  0.11915131     0.89100
C633        C  0.94406979  0.44636739  0.11220121     0.89100
H634        H  0.94973801  0.02017498  0.83362558    -0.05000
O635        O  0.52889143  0.06219780  0.87780876    -0.74000
Mg636      Mg  0.93106567  0.42665989  0.94153135     1.58000
H637        H  0.56726579  0.05463129  0.83807551    -0.05000
C638        C  0.57431846  0.43589200  0.95483235     0.94100
O639        O  0.96471435  0.37511457  0.04033874    -0.81300
C640        C  0.93224394  0.36018215  0.02995167     0.94200
O641        O  0.62342313  0.09183328  0.05968374    -0.81300
Mg642      Mg  0.99139690  0.06920646  0.95677973     1.58200
O643        O  0.54309685  0.42003762  0.97822018    -0.79600
O644        O  0.90516426  0.03183527  0.05340817    -0.81300
O645        O  0.98627621  0.04399768  0.44361740    -0.86900
C646        C  0.55400470  0.05395110  0.61322976     0.89200
Mg647      Mg  0.93233292  0.00662328  0.45014218     1.58100
O648        O  0.55958141  0.01335963  0.44449806    -0.86600
O649        O  0.53015504  0.05753221  0.36640819    -0.73900
C650        C  0.92557744  0.36044370  0.55285295     0.94200
O651        O  0.97310801  0.03203630  0.62668873    -0.73700
O652        O  0.90866683  0.37607974  0.56086520    -0.81300
Mg653      Mg  0.50864451  0.07579936  0.54439771     1.58000
C654        C  0.56569379  0.42448450  0.45968884     0.94100
O655        O  0.54471092  0.12430289  0.47311671    -0.79500
H656        H  0.56587980  0.01339768  0.32976540    -0.04900
C657        C  0.00256205  0.44936520  0.62097711     0.89100
O658        O  0.94018554  0.46920420  0.37403113    -0.74000
O659        O  0.54642544  0.05966175  0.54804265    -0.86800
O660        O  0.58156976  0.45550932  0.48311200    -0.79600
C661        C  0.64163018  0.06543616  0.53712156     0.94200
C662        C  0.57535798  0.13933991  0.44631691     0.94100
Mg663      Mg  0.99271861  0.42387926  0.45468275     1.58000
O664        O  0.95619318  0.37505249  0.52564503    -0.79500
O665        O  0.52841157  0.46792063  0.37285756    -0.73800
O666        O  0.62625675  0.08071574  0.51040056    -0.79600
O667        O  0.96834806  0.09259692  0.54443110    -0.81300
O668        O  0.87516804  0.41930415  0.49111802    -0.79600
C669        C  0.55227780  0.49891765  0.38070243     0.88500
O670        O  0.95500468  0.44004421  0.45149970    -0.86800
O671        O  0.51537759  0.45561154  0.55532226    -0.86900
O672        O  0.97170227  0.44238240  0.63289356    -0.73900
Mg673      Mg  0.57601022  0.06722472  0.44386874     1.58000
O674        O  0.62641792  0.03308147  0.54678410    -0.81300
H675        H  0.98338439  0.04860716  0.32893765    -0.05000
O676        O  0.94227378  0.48664037  0.55484808    -0.86600
H677        H  0.93560411  0.48651424  0.66945218    -0.04900
H678        H  0.94781976  0.43061326  0.33781915    -0.05000
C679        C  0.94932795  0.00103787  0.61866493     0.88500
C680        C  0.49919818  0.05031219  0.37804684     0.89100
C681        C  0.94732199  0.44556640  0.38627086     0.89100
H682        H  0.51840880  0.45096946  0.66993587    -0.05000
O683        O  0.56124827  0.03035301  0.62516974    -0.74000
Mg684      Mg  0.92573106  0.43285527  0.55606978     1.58000
H685        H  0.55336992  0.06873108  0.66189464    -0.05000
C686        C  0.93569360  0.07522406  0.53790051     0.94100
O687        O  0.87529670  0.46688391  0.45325348    -0.81300
C688        C  0.85984734  0.43463915  0.46448636     0.94200
O689        O  0.59281777  0.12419486  0.43913617    -0.81300
Mg690      Mg  0.56932895  0.49308158  0.54885863     1.58200
O691        O  0.91998756  0.04418324  0.51480992    -0.79600
O692        O  0.53300667  0.40713771  0.45386426    -0.81300
C693        C  0.60499054  0.20618665  0.42083541    -0.11800
C694        C  0.59128818  0.17533796  0.42753946    -0.13400
C695        C  0.82336638  0.41488169  0.44930631    -0.11800
C696        C  0.79238605  0.39852340  0.44169524    -0.13400
C697        C  0.58543855  0.40800518  0.44224839    -0.11800
C698        C  0.60170227  0.39335616  0.43421973    -0.13400
C699        C  0.58340303  0.17738554  0.95522357    -0.11800
C700        C  0.59956503  0.20817030  0.94656357    -0.13400
C701        C  0.79170908  0.39754351  0.92029949    -0.11800
C702        C  0.82268429  0.41166810  0.92736427    -0.13400
C703        C  0.60513177  0.39937059  0.93072700    -0.11800
C704        C  0.59093212  0.41615904  0.93777111    -0.13400
C705        C  0.66704300  0.30550448  0.72086717    -0.11900
C706        C  0.66532849  0.33177843  0.76119013     0.10300
C707        C  0.67062886  0.36064192  0.71837123    -0.11900
C708        C  0.67133609  0.36041492  0.63746418    -0.11900
C709        C  0.66640895  0.33119141  0.59686969     0.10300
C710        C  0.66757291  0.30521412  0.63987850    -0.11900
H711        H  0.66915893  0.28567666  0.75150854     0.14300
H712        H  0.67491748  0.38375463  0.74722876     0.14300
H713        H  0.67612878  0.38338637  0.60682640     0.14300
H714        H  0.67017902  0.28526442  0.61153885     0.14300
C715        C  0.69304956  0.33110481  0.21870313    -0.11900
C716        C  0.66694379  0.33248028  0.26102779     0.10300
C717        C  0.63795290  0.32827994  0.21977348    -0.11900
C718        C  0.63805596  0.32919961  0.13886872    -0.11900
C719        C  0.66702473  0.33400995  0.09672158     0.10300
C720        C  0.69298438  0.33166491  0.13771124    -0.11900
H721        H  0.71304502  0.32855352  0.24776783     0.14300
H722        H  0.61483657  0.32370172  0.24976713     0.14300
H723        H  0.61505724  0.32537627  0.10947023     0.14300
H724        H  0.71276627  0.32918016  0.10759918     0.14300
C725        C  0.89907597  0.10588382  0.56144178    -0.11800
C726        C  0.91572867  0.09160205  0.55399666    -0.13400
C727        C  0.89398405  0.29349405  0.57823200    -0.11800
C728        C  0.90883154  0.32438251  0.57133465    -0.13400
C729        C  0.67791612  0.08546029  0.55438646    -0.11800
C730        C  0.70883200  0.10215297  0.56296892    -0.13400
C731        C  0.90576973  0.08370260  0.06811859    -0.11800
C732        C  0.89120296  0.10004094  0.07570971    -0.13400
C733        C  0.89541111  0.29314369  0.05373171    -0.11800
C734        C  0.91191864  0.32392248  0.04528214    -0.13400
C735        C  0.70654462  0.10606554  0.07379556    -0.11800
C736        C  0.67545673  0.09144534  0.06726122    -0.13400
C737        C  0.80855324  0.17072134  0.86051853    -0.11900
C738        C  0.83329920  0.16710274  0.90334130     0.10300
C739        C  0.86199649  0.17016642  0.86281549    -0.11900
C740        C  0.86261093  0.17029473  0.78185201    -0.11900
C741        C  0.83463795  0.16759465  0.73899545     0.10300
C742        C  0.80923663  0.17099676  0.77955707    -0.11900
H743        H  0.78912803  0.17428696  0.88922636     0.14300
H744        H  0.88446053  0.17327672  0.89342536     0.14300
H745        H  0.88548617  0.17349251  0.75320945     0.14300
H746        H  0.79018151  0.17458470  0.74894752     0.14300
C747        C  0.81196033  0.13973578  0.28088965    -0.11900
C748        C  0.83535587  0.16903823  0.23892471     0.10300
C749        C  0.86309433  0.19537003  0.27996986    -0.11900
C750        C  0.86368736  0.19522784  0.36097303    -0.11900
C751        C  0.83659207  0.16872009  0.40317417     0.10300
C752        C  0.81274763  0.13948363  0.36178431    -0.11900
H753        H  0.79323276  0.11674382  0.25124897     0.14300
H754        H  0.88503632  0.21554775  0.24999121     0.14300
H755        H  0.88596578  0.21536704  0.39002549     0.14300
H756        H  0.79473312  0.11620320  0.39174548     0.14300
C757        C  0.83389305  0.66914080  0.15064808     0.31500
C758        C  0.83250682  0.66643423  0.99174148     0.31500
C759        C  0.85072956  0.65010313  0.11327318    -0.04700
C760        C  0.79758660  0.65139531  0.11311737    -0.05500
C761        C  0.85159278  0.70416059  0.10808224    -0.05400
C762        C  0.84972459  0.64841410  0.03266070    -0.04700
C763        C  0.79698029  0.64954013  0.03220140    -0.05500
C764        C  0.85100238  0.70236616  0.02739173    -0.05400
C765        C  0.86391771  0.62859190  0.01129155    -0.30800
N766        N  0.87435232  0.61932022  0.07602971     0.15700
C767        C  0.86638404  0.63204529  0.13894257    -0.30800
H768        H  0.87130614  0.62820942  0.19852199     0.17700
C769        C  0.76276746  0.63141383  0.01017288    -0.29700
N770        N  0.74284871  0.62348959  0.07441834     0.14500
C771        C  0.76354426  0.63559226  0.13761676    -0.29700
C772        C  0.86706150  0.73536294  0.99888519    -0.30000
N773        N  0.87700903  0.75717991  0.05970731     0.15000
H774        H  0.87103577  0.74296141  0.93848670     0.17600
C775        C  0.86737199  0.73874394  0.12648871    -0.30000
H776        H  0.87116249  0.74993318  0.18358119     0.17600
H777        H  0.75439109  0.63307800  0.19662138     0.17600
H778        H  0.86616821  0.62089897  0.95320896     0.17700
H779        H  0.75280331  0.62410452  0.95196943     0.17600
C780        C  0.83571110  0.66908462  0.49160116     0.31500
C781        C  0.83467904  0.66687914  0.65062571     0.31500
C782        C  0.85368324  0.65132333  0.52938167    -0.04700
C783        C  0.85244578  0.70408432  0.53307364    -0.05500
C784        C  0.79970370  0.65061970  0.52947726    -0.05400
C785        C  0.85310514  0.64977004  0.61014967    -0.04700
C786        C  0.85218550  0.70288935  0.61388726    -0.05500
C787        C  0.79901543  0.64874354  0.61026927    -0.05400
C788        C  0.86932503  0.63148945  0.63078079    -0.30800
N789        N  0.88019381  0.62314857  0.56522708     0.15700
C790        C  0.87071977  0.63493440  0.50305284    -0.30800
H791        H  0.87580834  0.63175142  0.44320174     0.17700
C792        C  0.86770525  0.73633863  0.64027876    -0.29700
N793        N  0.87679635  0.75743187  0.57773993     0.14500
C794        C  0.86715111  0.73822055  0.51247223    -0.29700
C795        C  0.76461163  0.62969264  0.63171723    -0.30000
N796        N  0.74501037  0.62150461  0.56677300     0.15000
H797        H  0.75443758  0.62196050  0.68970639     0.17600
C798        C  0.76592485  0.63433820  0.50437254    -0.30000
H799        H  0.75693098  0.63184883  0.44524078     0.17600
H800        H  0.87019963  0.74865646  0.45462531     0.17600
H801        H  0.87275522  0.62434399  0.68859669     0.17700
H802        H  0.87182596  0.74465332  0.70010050     0.17600
C803        C  0.66688216  0.83482873  0.00836299     0.31500
C804        C  0.66440442  0.83211044  0.84950506     0.31500
C805        C  0.64863964  0.85230465  0.96903337    -0.04700
C806        C  0.70194066  0.85232437  0.96638611    -0.05500
C807        C  0.64850910  0.79890062  0.97273084    -0.05400
C808        C  0.64679348  0.85052420  0.88814902    -0.04700
C809        C  0.70062278  0.85056652  0.88573612    -0.05500
C810        C  0.64672241  0.79712338  0.89212726    -0.05400
C811        C  0.62937146  0.86734439  0.86504459    -0.30800
N812        N  0.62189197  0.87992059  0.92900256     0.15700
C813        C  0.63370954  0.87124827  0.99243784    -0.30800
H814        H  0.63192628  0.87872674  0.05104945     0.17700
C815        C  0.73421656  0.86776036  0.85887844    -0.29700
N816        N  0.75549130  0.88016521  0.92106044     0.14500
C817        C  0.73627519  0.87150896  0.98650039    -0.29700
C818        C  0.62723300  0.76258763  0.87371046    -0.30000
N819        N  0.61854215  0.74411986  0.94045399     0.15000
H820        H  0.61927959  0.75151330  0.81662165     0.17600
C821        C  0.63116651  0.76590697  0.00123520    -0.30000
H822        H  0.62765182  0.75829952  0.06162478     0.17600
H823        H  0.74684306  0.87905897  0.04418849     0.17600
H824        H  0.62270510  0.87043344  0.80645768     0.17700
H825        H  0.74252024  0.87099870  0.79902874     0.17600
C826        C  0.66728041  0.83298832  0.34940512     0.31500
C827        C  0.66542851  0.83061123  0.50840911     0.31500
C828        C  0.64872803  0.85017137  0.38902326    -0.04700
C829        C  0.64944261  0.79692779  0.38592998    -0.05500
C830        C  0.70267579  0.85094733  0.39078268    -0.05400
C831        C  0.64721973  0.84820681  0.46976794    -0.04700
C832        C  0.64812094  0.79560508  0.46675488    -0.05500
C833        C  0.70137655  0.84929977  0.47152256    -0.05400
C834        C  0.62872870  0.86348587  0.49415569    -0.30800
N835        N  0.62030014  0.87579398  0.43135198     0.15700
C836        C  0.63248881  0.86825737  0.36686763    -0.30800
H837        H  0.62981418  0.87564947  0.30869644     0.17700
C838        C  0.62990200  0.76131632  0.48699468    -0.29700
N839        N  0.62152416  0.74223144  0.42158766     0.14500
C840        C  0.63307305  0.76349440  0.35927255    -0.29700
C841        C  0.73472631  0.86681464  0.49870417    -0.30000
N842        N  0.75622229  0.87934322  0.43704407     0.15000
H843        H  0.74277092  0.87045965  0.55878397     0.16400
C844        C  0.73723539  0.87040396  0.37101142    -0.30000
H845        H  0.74797197  0.87812081  0.31347063     0.17600
H846        H  0.62992394  0.75529327  0.29942757     0.17600
H847        H  0.62165863  0.86549929  0.55305290     0.17700
H848        H  0.62277651  0.75063062  0.54468868     0.17600
O849        O  0.54308745  0.98549401  0.05314550    -0.86900
C850        C  0.55252962  0.55469801  0.88765954     0.89200
Mg851      Mg  0.50523666  0.93183596  0.04496919     1.58100
O852        O  0.51197293  0.55831227  0.05915780    -0.86600
O853        O  0.55686309  0.52850596  0.13229851    -0.73900
C854        C  0.85871397  0.92731885  0.94665850     0.94200
O855        O  0.53064617  0.97393775  0.86998667    -0.73700
O856        O  0.87403372  0.91018881  0.93704344    -0.81300
Mg857      Mg  0.57482952  0.50875402  0.95222089     1.58000
C858        C  0.92248214  0.56437887  0.04908618     0.94100
O859        O  0.62410163  0.54458394  0.02276578    -0.79500
H860        H  0.51233527  0.56337504  0.17431841    -0.04900
C861        C  0.94795221  0.00379472  0.88148968     0.89100
O862        O  0.96781612  0.93913184  0.12299491    -0.74000
O863        O  0.55839032  0.54637087  0.95183957    -0.86800
O864        O  0.95362277  0.58048745  0.02529826    -0.79600
C865        C  0.56368155  0.64107986  0.97057745     0.94200
C866        C  0.63904671  0.57497288  0.05019142     0.94100
Mg867      Mg  0.92225174  0.99212329  0.04835824     1.58000
O868        O  0.87358306  0.95725647  0.97625356    -0.79500
O869        O  0.96650095  0.52656505  0.13101485    -0.73800
O870        O  0.57932960  0.62561416  0.99449840    -0.79600
O871        O  0.59170037  0.96846134  0.94916204    -0.81300
O872        O  0.91710119  0.87586139  0.00439461    -0.79600
C873        C  0.99763935  0.55038390  0.12321879     0.88500
O874        O  0.93848638  0.95467466  0.04774173    -0.86800
O875        O  0.95401632  0.51572593  0.94787808    -0.86900
O876        O  0.94103745  0.97327945  0.86751738    -0.73900
Mg877      Mg  0.56614939  0.57483675  0.05765125     1.58000
O878        O  0.53115400  0.62587005  0.96171043    -0.81300
H879        H  0.54813729  0.98172494  0.16736258    -0.05000
O880        O  0.98506843  0.94271078  0.94181099    -0.86600
H881        H  0.98486516  0.93694927  0.82691104    -0.04900
H882        H  0.92910155  0.94642689  0.16132554    -0.05000
C883        C  0.49949450  0.95021389  0.87786962     0.88500
C884        C  0.54962498  0.49782145  0.11915127     0.89100
C885        C  0.94406982  0.94636738  0.11220122     0.89100
H886        H  0.94973813  0.52017501  0.83362543    -0.05000
O887        O  0.52889143  0.56219772  0.87780873    -0.74000
Mg888      Mg  0.93106564  0.92665987  0.94153135     1.58000
H889        H  0.56726578  0.55463118  0.83807553    -0.05000
C890        C  0.57431844  0.93589197  0.95483236     0.94100
O891        O  0.96471435  0.87511466  0.04033868    -0.81300
C892        C  0.93224396  0.86018221  0.02995168     0.94200
O893        O  0.62342305  0.59183318  0.05968373    -0.81300
Mg894      Mg  0.99139690  0.56920642  0.95677970     1.58200
O895        O  0.54309682  0.92003756  0.97822021    -0.79600
O896        O  0.90516420  0.53183528  0.05340814    -0.81300
O897        O  0.98627626  0.54399769  0.44361736    -0.86900
C898        C  0.55400470  0.55395107  0.61322973     0.89200
Mg899      Mg  0.93233298  0.50662324  0.45014216     1.58100
O900        O  0.55958131  0.51335962  0.44449806    -0.86600
O901        O  0.53015507  0.55753227  0.36640833    -0.73900
C902        C  0.92557747  0.86044366  0.55285295     0.94200
O903        O  0.97310805  0.53203625  0.62668865    -0.73700
O904        O  0.90866687  0.87607972  0.56086520    -0.81300
Mg905      Mg  0.50864450  0.57579931  0.54439769     1.58000
C906        C  0.56569384  0.92448460  0.45968884     0.94100
O907        O  0.54471095  0.62430283  0.47311671    -0.79500
H908        H  0.56587969  0.51339767  0.32976539    -0.04900
C909        C  0.00256199  0.94936512  0.62097708     0.89100
O910        O  0.94018552  0.96920430  0.37403121    -0.74000
O911        O  0.54642541  0.55966166  0.54804263    -0.86800
O912        O  0.58156983  0.95550939  0.48311211    -0.79600
C913        C  0.64163021  0.56543616  0.53712156     0.94200
C914        C  0.57535801  0.63933985  0.44631691     0.94100
Mg915      Mg  0.99271859  0.92387924  0.45468272     1.58000
O916        O  0.95619320  0.87505243  0.52564500    -0.79500
O917        O  0.52841159  0.96792063  0.37285754    -0.73800
O918        O  0.62625676  0.58071570  0.51040050    -0.79600
O919        O  0.96834801  0.59259685  0.54443111    -0.81300
O920        O  0.87516807  0.91930414  0.49111799    -0.79600
C921        C  0.55227789  0.99891763  0.38070244     0.88500
O922        O  0.95500461  0.94004418  0.45149960    -0.86800
O923        O  0.51537758  0.95561147  0.55532231    -0.86900
O924        O  0.97170225  0.94238235  0.63289352    -0.73900
Mg925      Mg  0.57601023  0.56722471  0.44386875     1.58000
O926        O  0.62641798  0.53308147  0.54678414    -0.81300
H927        H  0.98338444  0.54860705  0.32893756    -0.05000
O928        O  0.94227385  0.98664044  0.55484801    -0.86600
H929        H  0.93560414  0.98651426  0.66945205    -0.04900
H930        H  0.94781990  0.93061352  0.33781883    -0.05000
C931        C  0.94932796  0.50103785  0.61866494     0.88500
C932        C  0.49919818  0.55031218  0.37804676     0.89100
C933        C  0.94732199  0.94556652  0.38627082     0.89100
H934        H  0.51840865  0.95096929  0.66993596    -0.05000
O935        O  0.56124836  0.53035306  0.62516980    -0.74000
Mg936      Mg  0.92573108  0.93285529  0.55606977     1.58000
H937        H  0.55336988  0.56873107  0.66189462    -0.05000
C938        C  0.93569355  0.57522396  0.53790051     0.94100
O939        O  0.87529660  0.96688385  0.45325355    -0.81300
C940        C  0.85984731  0.93463908  0.46448636     0.94200
O941        O  0.59281780  0.62419481  0.43913618    -0.81300
Mg942      Mg  0.56932896  0.99308157  0.54885867     1.58200
O943        O  0.91998754  0.54418314  0.51480991    -0.79600
O944        O  0.53300671  0.90713780  0.45386420    -0.81300
C945        C  0.60499058  0.70618663  0.42083551    -0.11800
C946        C  0.59128822  0.67533793  0.42753951    -0.13400
C947        C  0.82336637  0.91488155  0.44930632    -0.11800
C948        C  0.79238604  0.89852330  0.44169527    -0.13400
C949        C  0.58543859  0.90800530  0.44224836    -0.11800
C950        C  0.60170231  0.89335627  0.43421967    -0.13400
C951        C  0.58340308  0.67738555  0.95522352    -0.11800
C952        C  0.59956504  0.70817031  0.94656351    -0.13400
C953        C  0.79170913  0.89754352  0.92029946    -0.11800
C954        C  0.82268434  0.91166817  0.92736427    -0.13400
C955        C  0.60513176  0.89937065  0.93072692    -0.11800
C956        C  0.59093209  0.91615906  0.93777104    -0.13400
C957        C  0.66704303  0.80550443  0.72086719    -0.11900
C958        C  0.66532849  0.83177839  0.76119014     0.10300
C959        C  0.67062883  0.86064186  0.71837123    -0.11900
C960        C  0.67133592  0.86041482  0.63746422    -0.11900
C961        C  0.66640880  0.83119133  0.59686969     0.10300
C962        C  0.66757290  0.80521409  0.63987846    -0.11900
H963        H  0.66915901  0.78567668  0.75150848     0.14300
H964        H  0.67491753  0.88375460  0.74722874     0.14300
H965        H  0.67612860  0.88338628  0.60682654     0.14300
H966        H  0.67017911  0.78526446  0.61153876     0.14300
C967        C  0.69304964  0.83110486  0.21870312    -0.11900
C968        C  0.66694383  0.83248026  0.26102779     0.10300
C969        C  0.63795298  0.82828001  0.21977346    -0.11900
C970        C  0.63805599  0.82919957  0.13886870    -0.11900
C971        C  0.66702475  0.83400991  0.09672157     0.10300
C972        C  0.69298443  0.83166490  0.13771122    -0.11900
H973        H  0.71304515  0.82855365  0.24776783     0.14300
H974        H  0.61483667  0.82370187  0.24976709     0.14300
H975        H  0.61505728  0.82537623  0.10947020     0.14300
H976        H  0.71276632  0.82918016  0.10759915     0.14300
C977        C  0.89907597  0.60588378  0.56144184    -0.11800
C978        C  0.91572859  0.59160194  0.55399667    -0.13400
C979        C  0.89398406  0.79349402  0.57823205    -0.11800
C980        C  0.90883158  0.82438248  0.57133470    -0.13400
C981        C  0.67791614  0.58546032  0.55438643    -0.11800
C982        C  0.70883200  0.60215293  0.56296888    -0.13400
C983        C  0.90576978  0.58370264  0.06811859    -0.11800
C984        C  0.89120297  0.60004094  0.07570965    -0.13400
C985        C  0.89541118  0.79314374  0.05373173    -0.11800
C986        C  0.91191871  0.82392254  0.04528209    -0.13400
C987        C  0.70654458  0.60606548  0.07379557    -0.11800
C988        C  0.67545669  0.59144529  0.06726124    -0.13400
C989        C  0.80855324  0.67072127  0.86051854    -0.11900
C990        C  0.83329923  0.66710272  0.90334130     0.10300
C991        C  0.86199659  0.67016655  0.86281551    -0.11900
C992        C  0.86261105  0.67029490  0.78185200    -0.11900
C993        C  0.83463802  0.66759473  0.73899545     0.10300
C994        C  0.80923663  0.67099670  0.77955709    -0.11900
H995        H  0.78912801  0.67428685  0.88922638     0.14300
H996        H  0.88446064  0.67327689  0.89342544     0.14300
H997        H  0.88548630  0.67349271  0.75320939     0.14300
H998        H  0.79018147  0.67458458  0.74894758     0.14300
C999        C  0.81196022  0.63973582  0.28088970    -0.11900
C1000       C  0.83535578  0.66903824  0.23892470     0.10300
C1001       C  0.86309424  0.69537001  0.27996986    -0.11900
C1002       C  0.86368735  0.69522779  0.36097297    -0.11900
C1003       C  0.83659209  0.66872006  0.40317419     0.10300
C1004       C  0.81274762  0.63948365  0.36178430    -0.11900
H1005       H  0.79323261  0.61674382  0.25124899     0.14300
H1006       H  0.88503625  0.71554774  0.24999109     0.14300
H1007       H  0.88596584  0.71536701  0.39002547     0.14300
H1008       H  0.79473311  0.61620314  0.39174559     0.14300
loop_ 
_geom_bond_atom_site_label_1 
_geom_bond_atom_site_label_2 
_geom_bond_distance 
_geom_bond_site_symmetry_2 
_ccdc_geom_bond_type 
C1            C3   1.537       .  S
C1            C5   1.548       .  S
C1            C4   1.550       .  S
C1          C244   1.525       .  S
C2            C6   1.539   1_556  S
C2            C8   1.531   1_556  S
C2            C7   1.544   1_556  S
C2          C234   1.526       .  S
C3           C11   1.383       .  A
C3            C6   1.393       .  A
C4           C15   1.386       .  A
C4            C7   1.398       .  A
C5           C19   1.387       .  A
C5            C8   1.394       .  A
C6            C9   1.379       .  A
C7           C13   1.381       .  A
C8           C16   1.376   1_554  A
C9           N10   1.353       .  A
C9           H22   1.082   1_554  S
N10          C11   1.356       .  A
N10         C228   1.404       .  S
C11          H12   1.082       .  S
C13          N14   1.354       .  A
C13          H23   1.082   1_554  S
N14          C15   1.357       .  A
N14         C231   1.408       .  S
C15          H21   1.082       .  S
C16          N17   1.353   1_556  A
C16          H18   1.083       .  S
N17          C19   1.357       .  A
N17         C229   1.405       .  S
C19          H20   1.081       .  S
C24          C26   1.532       .  S
C24          C28   1.541       .  S
C24          C27   1.542       .  S
C24         C247   1.527       .  S
C25          C29   1.548       .  S
C25          C31   1.548       .  S
C25          C30   1.539       .  S
C25         C237   1.525       .  S
C26          C34   1.376       .  A
C26          C29   1.395       .  A
C27          C38   1.380       .  A
C27          C30   1.395       .  A
C28          C42   1.380       .  A
C28          C31   1.396       .  A
C29          C32   1.387       .  A
C30          C36   1.383       .  A
C31          C39   1.387       .  A
C32          N33   1.357       .  A
C32          H45   1.081       .  S
N33          C34   1.354       .  A
N33         C221   1.406       .  S
C34          H35   1.083       .  S
C36          N37   1.357       .  A
C36          H46   1.082       .  S
N37          C38   1.354       .  A
N37         C223   1.406       .  S
C38          H44   1.081       .  S
C39          N40   1.356       .  A
C39          H41   1.082       .  S
N40          C42   1.352       .  A
N40         C226   1.405       .  S
C42          H43   1.082       .  S
C47          C49   1.543   1_554  S
C47          C51   1.530   1_554  S
C47          C50   1.540   1_554  S
C47         C215   1.525       .  S
C48          C52   1.551       .  S
C48          C54   1.548       .  S
C48          C53   1.537       .  S
C48         C202   1.525       .  S
C49          C57   1.380       .  A
C49          C52   1.398       .  A
C50          C61   1.379       .  A
C50          C53   1.393       .  A
C51          C65   1.376   1_556  A
C51          C54   1.393       .  A
C52          C55   1.387       .  A
C53          C59   1.382       .  A
C54          C62   1.387       .  A
C55          N56   1.357       .  A
C55          H68   1.082       .  S
N56          C57   1.354       .  A
N56         C199   1.408       .  S
C57          H58   1.082   1_556  S
C59          N60   1.356       .  A
C59          H69   1.082       .  S
N60          C61   1.353       .  A
N60         C197   1.404       .  S
C61          H67   1.082   1_556  S
C62          N63   1.357       .  A
C62          H64   1.082       .  S
N63          C65   1.353   1_556  A
N63         C196   1.405       .  S
C65          H66   1.083       .  S
C70          C72   1.548       .  S
C70          C74   1.547       .  S
C70          C73   1.539       .  S
C70         C212   1.525       .  S
C71          C75   1.541       .  S
C71          C77   1.532       .  S
C71          C76   1.543       .  S
C71         C205   1.527       .  S
C72          C80   1.387       .  A
C72          C75   1.395       .  A
C73          C84   1.383       .  A
C73          C76   1.396       .  A
C74          C88   1.386       .  A
C74          C77   1.395       .  A
C75          C78   1.379       .  A
C76          C82   1.381       .  A
C77          C85   1.376       .  A
C78          N79   1.352       .  A
C78          H91   1.082       .  S
N79          C80   1.355       .  A
N79         C194   1.405       .  S
C80          H81   1.082       .  S
C82          N83   1.354       .  A
C82          H92   1.081       .  S
N83          C84   1.356       .  A
N83         C189   1.406       .  S
C84          H90   1.082       .  S
C85          N86   1.354       .  A
C85          H87   1.083       .  S
N86          C88   1.357       .  A
N86         C192   1.405       .  S
C88          H89   1.081       .  S
O93         Mg95   2.152       .  S
O93        Mg353   2.158   1_554  S
O93         C380   1.237       .  S
C94         H133   1.081       .  S
C94         O107   1.237       .  S
C94         O131   1.271       .  A
Mg95        O628   2.158   1_454  S
Mg95        O139   2.319   1_554  S
Mg95        O639   2.277   1_455  S
Mg95        O610   2.297   1_455  S
O96        Mg121   2.152       .  S
O96        Mg642   2.157   1_454  S
O96         C621   1.237   1_455  S
O97         C128   1.271   1_545  A
O97        Mg121   2.301       .  S
C98         O100   1.272       .  A
C98         O112   1.274       .  A
C98         C198   1.439       .  S
O99         C127   1.271   1_455  A
O99        Mg353   2.300       .  S
O100       Mg132   2.276       .  S
Mg101       O107   2.155       .  S
Mg101       O345   2.158   1_546  S
Mg101       O103   2.323   1_556  S
Mg101       O351   2.300   1_545  S
Mg101       O367   2.285   1_545  S
C102        O140   1.271       .  A
C102        O108   1.275       .  A
C102        C227   1.440       .  S
O103        C110   1.276       .  A
H104        C621   1.081   1_455  S
C105        H382   1.081       .  S
C105        O371   1.237       .  S
C105        O120   1.271       .  A
O106        C129   1.270       .  A
O106       Mg599   2.297       .  S
O107       Mg121   2.158   1_556  S
O108       Mg138   2.318   1_554  S
C109        O122   1.271       .  A
C109        O114   1.276       .  A
C109        C195   1.440       .  S
C110        O137   1.273       .  A
C110        C232   1.444       .  S
Mg111       O118   2.141       .  S
Mg111       O371   2.154   1_554  S
Mg111       O112   2.312   1_554  S
Mg111       O365   2.301       .  S
Mg111       O392   2.268       .  S
O113        C117   1.271       .  A
O113       Mg363   2.301   1_545  S
O114       Mg121   2.322   1_556  S
O115        C134   1.273       .  A
O115       Mg353   2.285       .  S
O116        C136   1.275       .  A
O116       Mg132   2.313   1_554  S
C117        H608   1.081       .  S
C117        O600   1.237       .  S
O118       Mg132   2.156   1_554  S
O118        C129   1.237       .  S
O119       Mg138   2.142       .  S
O119       Mg363   2.154   1_546  S
O119        C357   1.237       .  S
O120       Mg132   2.298       .  S
Mg121       O137   2.279       .  S
O122       Mg642   2.267   1_455  S
H123        C380   1.081       .  S
O124       Mg132   2.149       .  S
O124       Mg599   2.158   1_556  S
O124        C631   1.237       .  S
H125        C631   1.081       .  S
H126        C129   1.081       .  S
C127        H629   1.081       .  S
C127        O628   1.237       .  S
C128        H375   1.081       .  S
C128        O345   1.237       .  S
H130        C357   1.081       .  S
O131       Mg642   2.303   1_455  S
C134        O139   1.276       .  A
C134        C200   1.444       .  S
O135        C136   1.273       .  A
O135       Mg599   2.277       .  S
C136        C230   1.440       .  S
Mg138       O600   2.157   1_556  S
Mg138       O626   2.267       .  S
Mg138       O635   2.303       .  S
O140       Mg363   2.268   1_545  S
O141       Mg143   2.148       .  S
O141       Mg653   2.156       .  S
O141        C680   1.237       .  S
C142        H181   1.081       .  S
C142        O155   1.237       .  S
C142        O179   1.271       .  A
Mg143       O424   2.158   1_545  S
Mg143       O187   2.312       .  S
Mg143       O435   2.270   1_545  S
Mg143       O406   2.298   1_545  S
O144       Mg169   2.152       .  S
O144       Mg438   2.157   1_545  S
O144        C417   1.237   1_545  S
O145        C176   1.271   1_455  A
O145       Mg169   2.300       .  S
C146        O148   1.272       .  A
C146        O160   1.276       .  A
C146        C224   1.441       .  S
O147        C175   1.271       .  A
O147       Mg653   2.299       .  S
O148       Mg180   2.272       .  S
Mg149       O155   2.147       .  S
Mg149       O645   2.156   1_455  S
Mg149       O151   2.313       .  S
Mg149       O651   2.299   1_455  S
Mg149       O667   2.276   1_455  S
C150        O188   1.272       .  A
C150        O156   1.276       .  A
C150        C193   1.440       .  S
O151        C158   1.275       .  A
H152        C417   1.081   1_545  S
C153        H682   1.081       .  S
C153        O671   1.237       .  S
C153        O168   1.271       .  A
O154        C177   1.270       .  A
O154       Mg395   2.298       .  S
O155       Mg169   2.156       .  S
O156       Mg186   2.318       .  S
C157        O170   1.272       .  A
C157        O162   1.276       .  A
C157        C225   1.441       .  S
C158        O185   1.273       .  A
C158        C190   1.442       .  S
Mg159       O166   2.145       .  S
Mg159       O671   2.155       .  S
Mg159       O160   2.324       .  S
Mg159       O665   2.302       .  S
Mg159       O692   2.274       .  S
O161        C165   1.271       .  A
O161       Mg663   2.302   1_455  S
O162       Mg169   2.319       .  S
O163        C182   1.272       .  A
O163       Mg653   2.276       .  S
O164        C184   1.275       .  A
O164       Mg180   2.317       .  S
C165        H404   1.081       .  S
C165        O396   1.237       .  S
O166       Mg180   2.157       .  S
O166        C177   1.237       .  S
O167       Mg186   2.149       .  S
O167       Mg663   2.155   1_455  S
O167        C657   1.237       .  S
O168       Mg180   2.300       .  S
Mg169       O185   2.283       .  S
O170       Mg438   2.275   1_545  S
H171        C680   1.081       .  S
O172       Mg180   2.147       .  S
O172       Mg395   2.158       .  S
O172        C427   1.237       .  S
H173        C427   1.081       .  S
H174        C177   1.081       .  S
C175        H425   1.081   1_545  S
C175        O424   1.237   1_545  S
C176        H675   1.081       .  S
C176        O645   1.237       .  S
H178        C657   1.081       .  S
O179       Mg438   2.300   1_545  S
C182        O187   1.274       .  A
C182        C222   1.441       .  S
O183        C184   1.271       .  A
O183       Mg395   2.270       .  S
C184        C191   1.440       .  S
Mg186       O396   2.157       .  S
Mg186       O422   2.275       .  S
Mg186       O431   2.300       .  S
O188       Mg663   2.274   1_455  S
C189        C190   1.210       .  T
C191        C192   1.209       .  T
C193        C194   1.209       .  T
C195        C196   1.209       .  T
C197        C198   1.208       .  T
C199        C200   1.211       .  T
C201        C202   1.407       .  A
C201        C206   1.398       .  A
C201        H207   1.080       .  S
C202        C203   1.405       .  A
C203        C204   1.397       .  A
C203        H208   1.081       .  S
C204        C205   1.407       .  A
C204        H209   1.081       .  S
C205        C206   1.405       .  A
C206        H210   1.079       .  S
C211        C212   1.405       .  A
C211        C216   1.398       .  A
C211        H217   1.080       .  S
C212        C213   1.407       .  A
C213        C214   1.396       .  A
C213        H218   1.081       .  S
C214        C215   1.406       .  A
C214        H219   1.081       .  S
C215        C216   1.407       .  A
C216        H220   1.080       .  S
C221        C222   1.209       .  T
C223        C224   1.210       .  T
C225        C226   1.209       .  T
C227        C228   1.208       .  T
C229        C230   1.209       .  T
C231        C232   1.211       .  T
C233        C234   1.406       .  A
C233        C238   1.397       .  A
C233        H239   1.080       .  S
C234        C235   1.407       .  A
C235        C236   1.397       .  A
C235        H240   1.081       .  S
C236        C237   1.405       .  A
C236        H241   1.080       .  S
C237        C238   1.407       .  A
C238        H242   1.081       .  S
C243        C244   1.406       .  A
C243        C248   1.396       .  A
C243        H249   1.081       .  S
C244        C245   1.407       .  A
C245        C246   1.398       .  A
C245        H250   1.079       .  S
C246        C247   1.405       .  A
C246        H251   1.079       .  S
C247        C248   1.407       .  A
C248        H252   1.081       .  S
C253        C255   1.537       .  S
C253        C257   1.548       .  S
C253        C256   1.550       .  S
C253        C496   1.525       .  S
C254        C258   1.539   1_556  S
C254        C260   1.531   1_556  S
C254        C259   1.544   1_556  S
C254        C486   1.526       .  S
C255        C263   1.383       .  A
C255        C258   1.393       .  A
C256        C267   1.386       .  A
C256        C259   1.398       .  A
C257        C271   1.387       .  A
C257        C260   1.394       .  A
C258        C261   1.379       .  A
C259        C265   1.381       .  A
C260        C268   1.376   1_554  A
C261        N262   1.353       .  A
C261        H274   1.082   1_554  S
N262        C263   1.356       .  A
N262        C480   1.404       .  S
C263        H264   1.082       .  S
C265        N266   1.354       .  A
C265        H275   1.082   1_554  S
N266        C267   1.357       .  A
N266        C483   1.408       .  S
C267        H273   1.082       .  S
C268        N269   1.353   1_556  A
C268        H270   1.083       .  S
N269        C271   1.357       .  A
N269        C481   1.405       .  S
C271        H272   1.081       .  S
C276        C278   1.532       .  S
C276        C280   1.541       .  S
C276        C279   1.542       .  S
C276        C499   1.527       .  S
C277        C281   1.548       .  S
C277        C283   1.548       .  S
C277        C282   1.539       .  S
C277        C489   1.525       .  S
C278        C286   1.376       .  A
C278        C281   1.395       .  A
C279        C290   1.380       .  A
C279        C282   1.395       .  A
C280        C294   1.380       .  A
C280        C283   1.396       .  A
C281        C284   1.387       .  A
C282        C288   1.383       .  A
C283        C291   1.387       .  A
C284        N285   1.357       .  A
C284        H297   1.081       .  S
N285        C286   1.354       .  A
N285        C473   1.406       .  S
C286        H287   1.083       .  S
C288        N289   1.357       .  A
C288        H298   1.082       .  S
N289        C290   1.354       .  A
N289        C475   1.406       .  S
C290        H296   1.081       .  S
C291        N292   1.356       .  A
C291        H293   1.082       .  S
N292        C294   1.352       .  A
N292        C478   1.405       .  S
C294        H295   1.082       .  S
C299        C301   1.543   1_554  S
C299        C303   1.530   1_554  S
C299        C302   1.540   1_554  S
C299        C467   1.525       .  S
C300        C304   1.551       .  S
C300        C306   1.548       .  S
C300        C305   1.537       .  S
C300        C454   1.525       .  S
C301        C309   1.380       .  A
C301        C304   1.398       .  A
C302        C313   1.379       .  A
C302        C305   1.393       .  A
C303        C317   1.376   1_556  A
C303        C306   1.393       .  A
C304        C307   1.387       .  A
C305        C311   1.382       .  A
C306        C314   1.387       .  A
C307        N308   1.357       .  A
C307        H320   1.082       .  S
N308        C309   1.354       .  A
N308        C451   1.408       .  S
C309        H310   1.082   1_556  S
C311        N312   1.356       .  A
C311        H321   1.082       .  S
N312        C313   1.353       .  A
N312        C449   1.404       .  S
C313        H319   1.082   1_556  S
C314        N315   1.357       .  A
C314        H316   1.082       .  S
N315        C317   1.353   1_556  A
N315        C448   1.405       .  S
C317        H318   1.083       .  S
C322        C324   1.548       .  S
C322        C326   1.547       .  S
C322        C325   1.539       .  S
C322        C464   1.525       .  S
C323        C327   1.541       .  S
C323        C329   1.532       .  S
C323        C328   1.543       .  S
C323        C457   1.527       .  S
C324        C332   1.387       .  A
C324        C327   1.395       .  A
C325        C336   1.383       .  A
C325        C328   1.396       .  A
C326        C340   1.386       .  A
C326        C329   1.395       .  A
C327        C330   1.379       .  A
C328        C334   1.381       .  A
C329        C337   1.376       .  A
C330        N331   1.352       .  A
C330        H343   1.082       .  S
N331        C332   1.355       .  A
N331        C446   1.405       .  S
C332        H333   1.082       .  S
C334        N335   1.354       .  A
C334        H344   1.081       .  S
N335        C336   1.356       .  A
N335        C441   1.406       .  S
C336        H342   1.082       .  S
C337        N338   1.354       .  A
C337        H339   1.083       .  S
N338        C340   1.357       .  A
N338        C444   1.405       .  S
C340        H341   1.081       .  S
O345       Mg347   2.152       .  S
C346        H385   1.081       .  S
C346        O359   1.237       .  S
C346        O383   1.271       .  A
Mg347       O880   2.158   1_454  S
Mg347       O391   2.319   1_554  S
Mg347       O891   2.277   1_455  S
Mg347       O862   2.297   1_455  S
O348       Mg894   2.157   1_454  S
O348       Mg373   2.152       .  S
O348        C873   1.237   1_455  S
O349        C380   1.271       .  A
O349       Mg373   2.301       .  S
C350        O352   1.272       .  A
C350        O364   1.274       .  A
C350        C450   1.439       .  S
O351        C379   1.271   1_455  A
O352       Mg384   2.276       .  S
Mg353       O359   2.155       .  S
Mg353       O355   2.323   1_556  S
C354        O392   1.271       .  A
C354        O360   1.275       .  A
C354        C479   1.440       .  S
O355        C362   1.276       .  A
H356        C873   1.081   1_455  S
C357        O372   1.271   1_545  A
O358        C381   1.270       .  A
O358       Mg851   2.297       .  S
O359       Mg373   2.158   1_556  S
O360       Mg390   2.318   1_554  S
C361        O374   1.271       .  A
C361        O366   1.276       .  A
C361        C447   1.440       .  S
C362        O389   1.273       .  A
C362        C484   1.444       .  S
Mg363       O370   2.141       .  S
Mg363       O364   2.312   1_554  S
O365        C369   1.271       .  A
O366       Mg373   2.322   1_556  S
O367        C386   1.273       .  A
O368        C388   1.275       .  A
O368       Mg384   2.313   1_554  S
C369        H860   1.081       .  S
C369        O852   1.237       .  S
O370       Mg384   2.156   1_554  S
O370        C381   1.237       .  S
O371       Mg390   2.142       .  S
O372       Mg384   2.298       .  S
Mg373       O389   2.279       .  S
O374       Mg894   2.267   1_455  S
O376       Mg851   2.158   1_556  S
O376       Mg384   2.149       .  S
O376        C883   1.237       .  S
H377        C883   1.081       .  S
H378        C381   1.081       .  S
C379        H881   1.081       .  S
C379        O880   1.237       .  S
O383       Mg894   2.303   1_455  S
C386        O391   1.276       .  A
C386        C452   1.444       .  S
O387        C388   1.273       .  A
O387       Mg851   2.277       .  S
C388        C482   1.440       .  S
Mg390       O852   2.157   1_556  S
Mg390       O878   2.267       .  S
Mg390       O887   2.303       .  S
O393       Mg395   2.148       .  S
O393       Mg905   2.156       .  S
O393        C932   1.237       .  S
C394        H433   1.081       .  S
C394        O407   1.237       .  S
C394        O431   1.271       .  A
Mg395       O439   2.312       .  S
O396       Mg421   2.152       .  S
O397        C428   1.271   1_455  A
O397       Mg421   2.300       .  S
C398        O400   1.272       .  A
C398        O412   1.276       .  A
C398        C476   1.441       .  S
O399        C427   1.271       .  A
O399       Mg905   2.299       .  S
O400       Mg432   2.272       .  S
Mg401       O897   2.156   1_455  S
Mg401       O407   2.147       .  S
Mg401       O903   2.299   1_455  S
Mg401       O919   2.276   1_455  S
Mg401       O403   2.313       .  S
C402        O440   1.272       .  A
C402        O408   1.276       .  A
C402        C445   1.440       .  S
O403        C410   1.275       .  A
C405        H934   1.081       .  S
C405        O923   1.237       .  S
C405        O420   1.271       .  A
O406        C429   1.270       .  A
O407       Mg421   2.156       .  S
O408       Mg438   2.318       .  S
C409        O422   1.272       .  A
C409        O414   1.276       .  A
C409        C477   1.441       .  S
C410        O437   1.273       .  A
C410        C442   1.442       .  S
Mg411       O418   2.145       .  S
Mg411       O923   2.155       .  S
Mg411       O412   2.324       .  S
Mg411       O917   2.302       .  S
Mg411       O944   2.274       .  S
O413        C417   1.271       .  A
O413       Mg915   2.302   1_455  S
O414       Mg421   2.319       .  S
O415        C434   1.272       .  A
O415       Mg905   2.276       .  S
O416        C436   1.275       .  A
O416       Mg432   2.317       .  S
O418       Mg432   2.157       .  S
O418        C429   1.237       .  S
O419       Mg915   2.155   1_455  S
O419       Mg438   2.149       .  S
O419        C909   1.237       .  S
O420       Mg432   2.300       .  S
Mg421       O437   2.283       .  S
H423        C932   1.081       .  S
O424       Mg432   2.147       .  S
H426        C429   1.081       .  S
C428        H927   1.081       .  S
C428        O897   1.237       .  S
H430        C909   1.081       .  S
C434        O439   1.274       .  A
C434        C474   1.441       .  S
O435        C436   1.271       .  A
C436        C443   1.440       .  S
O440       Mg915   2.274   1_455  S
C441        C442   1.210       .  T
C443        C444   1.209       .  T
C445        C446   1.209       .  T
C447        C448   1.209       .  T
C449        C450   1.208       .  T
C451        C452   1.211       .  T
C453        C454   1.407       .  A
C453        C458   1.398       .  A
C453        H459   1.080       .  S
C454        C455   1.405       .  A
C455        C456   1.397       .  A
C455        H460   1.081       .  S
C456        C457   1.407       .  A
C456        H461   1.081       .  S
C457        C458   1.405       .  A
C458        H462   1.079       .  S
C463        C464   1.405       .  A
C463        C468   1.398       .  A
C463        H469   1.080       .  S
C464        C465   1.407       .  A
C465        C466   1.396       .  A
C465        H470   1.081       .  S
C466        C467   1.406       .  A
C466        H471   1.081       .  S
C467        C468   1.407       .  A
C468        H472   1.080       .  S
C473        C474   1.209       .  T
C475        C476   1.210       .  T
C477        C478   1.209       .  T
C479        C480   1.208       .  T
C481        C482   1.209       .  T
C483        C484   1.211       .  T
C485        C486   1.406       .  A
C485        C490   1.397       .  A
C485        H491   1.080       .  S
C486        C487   1.407       .  A
C487        C488   1.397       .  A
C487        H492   1.081       .  S
C488        C489   1.405       .  A
C488        H493   1.080       .  S
C489        C490   1.407       .  A
C490        H494   1.081       .  S
C495        C496   1.406       .  A
C495        C500   1.396       .  A
C495        H501   1.081       .  S
C496        C497   1.407       .  A
C497        C498   1.398       .  A
C497        H502   1.079       .  S
C498        C499   1.405       .  A
C498        H503   1.079       .  S
C499        C500   1.407       .  A
C500        H504   1.081       .  S
C505        C507   1.537       .  S
C505        C509   1.548       .  S
C505        C508   1.550       .  S
C505        C748   1.525       .  S
C506        C510   1.539   1_556  S
C506        C512   1.531   1_556  S
C506        C511   1.544   1_556  S
C506        C738   1.526       .  S
C507        C515   1.383       .  A
C507        C510   1.393       .  A
C508        C519   1.386       .  A
C508        C511   1.398       .  A
C509        C523   1.387       .  A
C509        C512   1.394       .  A
C510        C513   1.379       .  A
C511        C517   1.381       .  A
C512        C520   1.376   1_554  A
C513        N514   1.353       .  A
C513        H526   1.082   1_554  S
N514        C515   1.356       .  A
N514        C732   1.404       .  S
C515        H516   1.082       .  S
C517        N518   1.354       .  A
C517        H527   1.082   1_554  S
N518        C519   1.357       .  A
N518        C735   1.408       .  S
C519        H525   1.082       .  S
C520        N521   1.353   1_556  A
C520        H522   1.083       .  S
N521        C523   1.357       .  A
N521        C733   1.405       .  S
C523        H524   1.081       .  S
C528        C530   1.532       .  S
C528        C532   1.541       .  S
C528        C531   1.542       .  S
C528        C751   1.527       .  S
C529        C533   1.548       .  S
C529        C535   1.548       .  S
C529        C534   1.539       .  S
C529        C741   1.525       .  S
C530        C538   1.376       .  A
C530        C533   1.395       .  A
C531        C542   1.380       .  A
C531        C534   1.395       .  A
C532        C546   1.380       .  A
C532        C535   1.396       .  A
C533        C536   1.387       .  A
C534        C540   1.383       .  A
C535        C543   1.387       .  A
C536        N537   1.357       .  A
C536        H549   1.081       .  S
N537        C538   1.354       .  A
N537        C725   1.406       .  S
C538        H539   1.083       .  S
C540        N541   1.357       .  A
C540        H550   1.082       .  S
N541        C542   1.354       .  A
N541        C727   1.406       .  S
C542        H548   1.081       .  S
C543        N544   1.356       .  A
C543        H545   1.082       .  S
N544        C546   1.352       .  A
N544        C730   1.405       .  S
C546        H547   1.082       .  S
C551        C553   1.543   1_554  S
C551        C555   1.530   1_554  S
C551        C554   1.540   1_554  S
C551        C719   1.525       .  S
C552        C556   1.551       .  S
C552        C558   1.548       .  S
C552        C557   1.537       .  S
C552        C706   1.525       .  S
C553        C561   1.380       .  A
C553        C556   1.398       .  A
C554        C565   1.379       .  A
C554        C557   1.393       .  A
C555        C569   1.376   1_556  A
C555        C558   1.393       .  A
C556        C559   1.387       .  A
C557        C563   1.382       .  A
C558        C566   1.387       .  A
C559        N560   1.357       .  A
C559        H572   1.082       .  S
N560        C561   1.354       .  A
N560        C703   1.408       .  S
C561        H562   1.082   1_556  S
C563        N564   1.356       .  A
C563        H573   1.082       .  S
N564        C565   1.353       .  A
N564        C701   1.404       .  S
C565        H571   1.082   1_556  S
C566        N567   1.357       .  A
C566        H568   1.082       .  S
N567        C569   1.353   1_556  A
N567        C700   1.405       .  S
C569        H570   1.083       .  S
C574        C576   1.548       .  S
C574        C578   1.547       .  S
C574        C577   1.539       .  S
C574        C716   1.525       .  S
C575        C579   1.541       .  S
C575        C581   1.532       .  S
C575        C580   1.543       .  S
C575        C709   1.527       .  S
C576        C584   1.387       .  A
C576        C579   1.395       .  A
C577        C588   1.383       .  A
C577        C580   1.396       .  A
C578        C592   1.386       .  A
C578        C581   1.395       .  A
C579        C582   1.379       .  A
C580        C586   1.381       .  A
C581        C589   1.376       .  A
C582        N583   1.352       .  A
C582        H595   1.082       .  S
N583        C584   1.355       .  A
N583        C698   1.405       .  S
C584        H585   1.082       .  S
C586        N587   1.354       .  A
C586        H596   1.081       .  S
N587        C588   1.356       .  A
N587        C693   1.406       .  S
C588        H594   1.082       .  S
C589        N590   1.354       .  A
C589        H591   1.083       .  S
N590        C592   1.357       .  A
N590        C696   1.405       .  S
C592        H593   1.081       .  S
O597       Mg599   2.152       .  S
O597       Mg857   2.158   1_554  S
O597        C884   1.237       .  S
C598        H637   1.081       .  S
C598        O611   1.237       .  S
C598        O635   1.271       .  A
Mg599       O643   2.319   1_554  S
O600       Mg625   2.152       .  S
O601        C632   1.271   1_545  A
O601       Mg625   2.301       .  S
C602        O604   1.272       .  A
C602        O616   1.274       .  A
C602        C702   1.439       .  S
O603        C631   1.271       .  A
O603       Mg857   2.300       .  S
O604       Mg636   2.276       .  S
Mg605       O849   2.158   1_546  S
Mg605       O611   2.155       .  S
Mg605       O855   2.300   1_545  S
Mg605       O871   2.285   1_545  S
Mg605       O607   2.323   1_556  S
C606        O644   1.271       .  A
C606        O612   1.275       .  A
C606        C731   1.440       .  S
O607        C614   1.276       .  A
C609        H886   1.081       .  S
C609        O875   1.237       .  S
C609        O624   1.271       .  A
O610        C633   1.270       .  A
O611       Mg625   2.158   1_556  S
O612       Mg642   2.318   1_554  S
C613        O626   1.271       .  A
C613        O618   1.276       .  A
C613        C699   1.440       .  S
C614        O641   1.273       .  A
C614        C736   1.444       .  S
Mg615       O622   2.141       .  S
Mg615       O875   2.154   1_554  S
Mg615       O616   2.312   1_554  S
Mg615       O869   2.301       .  S
Mg615       O896   2.268       .  S
O617        C621   1.271       .  A
O617       Mg867   2.301   1_545  S
O618       Mg625   2.322   1_556  S
O619        C638   1.273       .  A
O619       Mg857   2.285       .  S
O620        C640   1.275       .  A
O620       Mg636   2.313   1_554  S
O622       Mg636   2.156   1_554  S
O622        C633   1.237       .  S
O623       Mg867   2.154   1_546  S
O623       Mg642   2.142       .  S
O623        C861   1.237       .  S
O624       Mg636   2.298       .  S
Mg625       O641   2.279       .  S
H627        C884   1.081       .  S
O628       Mg636   2.149       .  S
H630        C633   1.081       .  S
C632        H879   1.081       .  S
C632        O849   1.237       .  S
H634        C861   1.081       .  S
C638        O643   1.276       .  A
C638        C704   1.444       .  S
O639        C640   1.273       .  A
C640        C734   1.440       .  S
O644       Mg867   2.268   1_545  S
O645       Mg647   2.148       .  S
C646        H685   1.081       .  S
C646        O659   1.237       .  S
C646        O683   1.271       .  A
Mg647       O928   2.158   1_545  S
Mg647       O691   2.312       .  S
Mg647       O939   2.270   1_545  S
Mg647       O910   2.298   1_545  S
O648       Mg942   2.157   1_545  S
O648       Mg673   2.152       .  S
O648        C921   1.237   1_545  S
O649        C680   1.271       .  A
O649       Mg673   2.300       .  S
C650        O652   1.272       .  A
C650        O664   1.276       .  A
C650        C728   1.441       .  S
O651        C679   1.271       .  A
O652       Mg684   2.272       .  S
Mg653       O659   2.147       .  S
Mg653       O655   2.313       .  S
C654        O692   1.272       .  A
C654        O660   1.276       .  A
C654        C697   1.440       .  S
O655        C662   1.275       .  A
H656        C921   1.081   1_545  S
C657        O672   1.271   1_455  A
O658        C681   1.270       .  A
O658       Mg899   2.298       .  S
O659       Mg673   2.156       .  S
O660       Mg690   2.318       .  S
C661        O674   1.272       .  A
C661        O666   1.276       .  A
C661        C729   1.441       .  S
C662        O689   1.273       .  A
C662        C694   1.442       .  S
Mg663       O670   2.145       .  S
Mg663       O664   2.324       .  S
O665        C669   1.271       .  A
O666       Mg673   2.319       .  S
O667        C686   1.272       .  A
O668        C688   1.275       .  A
O668       Mg684   2.317       .  S
C669        H908   1.081       .  S
C669        O900   1.237       .  S
O670       Mg684   2.157       .  S
O670        C681   1.237       .  S
O671       Mg690   2.149       .  S
O672       Mg684   2.300       .  S
Mg673       O689   2.283       .  S
O674       Mg942   2.275   1_545  S
O676       Mg899   2.158       .  S
O676       Mg684   2.147       .  S
O676        C931   1.237       .  S
H677        C931   1.081       .  S
H678        C681   1.081       .  S
C679        H929   1.081   1_545  S
C679        O928   1.237   1_545  S
O683       Mg942   2.300   1_545  S
C686        O691   1.274       .  A
C686        C726   1.441       .  S
O687        C688   1.271       .  A
O687       Mg899   2.270       .  S
C688        C695   1.440       .  S
Mg690       O900   2.157       .  S
Mg690       O926   2.275       .  S
Mg690       O935   2.300       .  S
C693        C694   1.210       .  T
C695        C696   1.209       .  T
C697        C698   1.209       .  T
C699        C700   1.209       .  T
C701        C702   1.208       .  T
C703        C704   1.211       .  T
C705        C706   1.407       .  A
C705        C710   1.398       .  A
C705        H711   1.080       .  S
C706        C707   1.405       .  A
C707        C708   1.397       .  A
C707        H712   1.081       .  S
C708        C709   1.407       .  A
C708        H713   1.081       .  S
C709        C710   1.405       .  A
C710        H714   1.079       .  S
C715        C716   1.405       .  A
C715        C720   1.398       .  A
C715        H721   1.080       .  S
C716        C717   1.407       .  A
C717        C718   1.396       .  A
C717        H722   1.081       .  S
C718        C719   1.406       .  A
C718        H723   1.081       .  S
C719        C720   1.407       .  A
C720        H724   1.080       .  S
C725        C726   1.209       .  T
C727        C728   1.210       .  T
C729        C730   1.209       .  T
C731        C732   1.208       .  T
C733        C734   1.209       .  T
C735        C736   1.211       .  T
C737        C738   1.406       .  A
C737        C742   1.397       .  A
C737        H743   1.080       .  S
C738        C739   1.407       .  A
C739        C740   1.397       .  A
C739        H744   1.081       .  S
C740        C741   1.405       .  A
C740        H745   1.080       .  S
C741        C742   1.407       .  A
C742        H746   1.081       .  S
C747        C748   1.406       .  A
C747        C752   1.396       .  A
C747        H753   1.081       .  S
C748        C749   1.407       .  A
C749        C750   1.398       .  A
C749        H754   1.079       .  S
C750        C751   1.405       .  A
C750        H755   1.079       .  S
C751        C752   1.407       .  A
C752        H756   1.081       .  S
C757        C759   1.537       .  S
C757        C761   1.548       .  S
C757        C760   1.550       .  S
C757       C1000   1.525       .  S
C758        C762   1.539   1_556  S
C758        C764   1.531   1_556  S
C758        C763   1.544   1_556  S
C758        C990   1.526       .  S
C759        C767   1.383       .  A
C759        C762   1.393       .  A
C760        C771   1.386       .  A
C760        C763   1.398       .  A
C761        C775   1.387       .  A
C761        C764   1.394       .  A
C762        C765   1.379       .  A
C763        C769   1.381       .  A
C764        C772   1.376   1_554  A
C765        N766   1.353       .  A
C765        H778   1.082   1_554  S
N766        C767   1.356       .  A
N766        C984   1.404       .  S
C767        H768   1.082       .  S
C769        N770   1.354       .  A
C769        H779   1.082   1_554  S
N770        C771   1.357       .  A
N770        C987   1.408       .  S
C771        H777   1.082       .  S
C772        N773   1.353   1_556  A
C772        H774   1.083       .  S
N773        C775   1.357       .  A
N773        C985   1.405       .  S
C775        H776   1.081       .  S
C780        C782   1.532       .  S
C780        C784   1.541       .  S
C780        C783   1.542       .  S
C780       C1003   1.527       .  S
C781        C785   1.548       .  S
C781        C787   1.548       .  S
C781        C786   1.539       .  S
C781        C993   1.525       .  S
C782        C790   1.376       .  A
C782        C785   1.395       .  A
C783        C794   1.380       .  A
C783        C786   1.395       .  A
C784        C798   1.380       .  A
C784        C787   1.396       .  A
C785        C788   1.387       .  A
C786        C792   1.383       .  A
C787        C795   1.387       .  A
C788        N789   1.357       .  A
C788        H801   1.081       .  S
N789        C790   1.354       .  A
N789        C977   1.406       .  S
C790        H791   1.083       .  S
C792        N793   1.357       .  A
C792        H802   1.082       .  S
N793        C794   1.354       .  A
N793        C979   1.406       .  S
C794        H800   1.081       .  S
C795        N796   1.356       .  A
C795        H797   1.082       .  S
N796        C798   1.352       .  A
N796        C982   1.405       .  S
C798        H799   1.082       .  S
C803        C805   1.543   1_554  S
C803        C807   1.530   1_554  S
C803        C806   1.540   1_554  S
C803        C971   1.525       .  S
C804        C808   1.551       .  S
C804        C810   1.548       .  S
C804        C809   1.537       .  S
C804        C958   1.525       .  S
C805        C813   1.380       .  A
C805        C808   1.398       .  A
C806        C817   1.379       .  A
C806        C809   1.393       .  A
C807        C821   1.376   1_556  A
C807        C810   1.393       .  A
C808        C811   1.387       .  A
C809        C815   1.382       .  A
C810        C818   1.387       .  A
C811        N812   1.357       .  A
C811        H824   1.082       .  S
N812        C813   1.354       .  A
N812        C955   1.408       .  S
C813        H814   1.082   1_556  S
C815        N816   1.356       .  A
C815        H825   1.082       .  S
N816        C817   1.353       .  A
N816        C953   1.404       .  S
C817        H823   1.082   1_556  S
C818        N819   1.357       .  A
C818        H820   1.082       .  S
N819        C821   1.353   1_556  A
N819        C952   1.405       .  S
C821        H822   1.083       .  S
C826        C828   1.548       .  S
C826        C830   1.547       .  S
C826        C829   1.539       .  S
C826        C968   1.525       .  S
C827        C831   1.541       .  S
C827        C833   1.532       .  S
C827        C832   1.543       .  S
C827        C961   1.527       .  S
C828        C836   1.387       .  A
C828        C831   1.395       .  A
C829        C840   1.383       .  A
C829        C832   1.396       .  A
C830        C844   1.386       .  A
C830        C833   1.395       .  A
C831        C834   1.379       .  A
C832        C838   1.381       .  A
C833        C841   1.376       .  A
C834        N835   1.352       .  A
C834        H847   1.082       .  S
N835        C836   1.355       .  A
N835        C950   1.405       .  S
C836        H837   1.082       .  S
C838        N839   1.354       .  A
C838        H848   1.081       .  S
N839        C840   1.356       .  A
N839        C945   1.406       .  S
C840        H846   1.082       .  S
C841        N842   1.354       .  A
C841        H843   1.083       .  S
N842        C844   1.357       .  A
N842        C948   1.405       .  S
C844        H845   1.081       .  S
O849       Mg851   2.152       .  S
C850        H889   1.081       .  S
C850        O863   1.237       .  S
C850        O887   1.271       .  A
Mg851       O895   2.319   1_554  S
O852       Mg877   2.152       .  S
O853        C884   1.271       .  A
O853       Mg877   2.301       .  S
C854        O856   1.272       .  A
C854        O868   1.274       .  A
C854        C954   1.439       .  S
O855        C883   1.271       .  A
O856       Mg888   2.276       .  S
Mg857       O863   2.155       .  S
Mg857       O859   2.323   1_556  S
C858        O896   1.271       .  A
C858        O864   1.275       .  A
C858        C983   1.440       .  S
O859        C866   1.276       .  A
C861        O876   1.271   1_545  A
O862        C885   1.270       .  A
O863       Mg877   2.158   1_556  S
O864       Mg894   2.318   1_554  S
C865        O878   1.271       .  A
C865        O870   1.276       .  A
C865        C951   1.440       .  S
C866        O893   1.273       .  A
C866        C988   1.444       .  S
Mg867       O874   2.141       .  S
Mg867       O868   2.312   1_554  S
O869        C873   1.271       .  A
O870       Mg877   2.322   1_556  S
O871        C890   1.273       .  A
O872        C892   1.275       .  A
O872       Mg888   2.313   1_554  S
O874       Mg888   2.156   1_554  S
O874        C885   1.237       .  S
O875       Mg894   2.142       .  S
O876       Mg888   2.298       .  S
Mg877       O893   2.279       .  S
O880       Mg888   2.149       .  S
H882        C885   1.081       .  S
C890        O895   1.276       .  A
C890        C956   1.444       .  S
O891        C892   1.273       .  A
C892        C986   1.440       .  S
O897       Mg899   2.148       .  S
C898        H937   1.081       .  S
C898        O911   1.237       .  S
C898        O935   1.271       .  A
Mg899       O943   2.312       .  S
O900       Mg925   2.152       .  S
O901        C932   1.271       .  A
O901       Mg925   2.300       .  S
C902        O904   1.272       .  A
C902        O916   1.276       .  A
C902        C980   1.441       .  S
O903        C931   1.271       .  A
O904       Mg936   2.272       .  S
Mg905       O911   2.147       .  S
Mg905       O907   2.313       .  S
C906        O944   1.272       .  A
C906        O912   1.276       .  A
C906        C949   1.440       .  S
O907        C914   1.275       .  A
C909        O924   1.271   1_455  A
O910        C933   1.270       .  A
O911       Mg925   2.156       .  S
O912       Mg942   2.318       .  S
C913        O926   1.272       .  A
C913        O918   1.276       .  A
C913        C981   1.441       .  S
C914        O941   1.273       .  A
C914        C946   1.442       .  S
Mg915       O922   2.145       .  S
Mg915       O916   2.324       .  S
O917        C921   1.271       .  A
O918       Mg925   2.319       .  S
O919        C938   1.272       .  A
O920        C940   1.275       .  A
O920       Mg936   2.317       .  S
O922       Mg936   2.157       .  S
O922        C933   1.237       .  S
O923       Mg942   2.149       .  S
O924       Mg936   2.300       .  S
Mg925       O941   2.283       .  S
O928       Mg936   2.147       .  S
H930        C933   1.081       .  S
C938        O943   1.274       .  A
C938        C978   1.441       .  S
O939        C940   1.271       .  A
C940        C947   1.440       .  S
C945        C946   1.210       .  T
C947        C948   1.209       .  T
C949        C950   1.209       .  T
C951        C952   1.209       .  T
C953        C954   1.208       .  T
C955        C956   1.211       .  T
C957        C958   1.407       .  A
C957        C962   1.398       .  A
C957        H963   1.080       .  S
C958        C959   1.405       .  A
C959        C960   1.397       .  A
C959        H964   1.081       .  S
C960        C961   1.407       .  A
C960        H965   1.081       .  S
C961        C962   1.405       .  A
C962        H966   1.079       .  S
C967        C968   1.405       .  A
C967        C972   1.398       .  A
C967        H973   1.080       .  S
C968        C969   1.407       .  A
C969        C970   1.396       .  A
C969        H974   1.081       .  S
C970        C971   1.406       .  A
C970        H975   1.081       .  S
C971        C972   1.407       .  A
C972        H976   1.080       .  S
C977        C978   1.209       .  T
C979        C980   1.210       .  T
C981        C982   1.209       .  T
C983        C984   1.208       .  T
C985        C986   1.209       .  T
C987        C988   1.211       .  T
C989        C990   1.406       .  A
C989        C994   1.397       .  A
C989        H995   1.080       .  S
C990        C991   1.407       .  A
C991        C992   1.397       .  A
C991        H996   1.081       .  S
C992        C993   1.405       .  A
C992        H997   1.080       .  S
C993        C994   1.407       .  A
C994        H998   1.081       .  S
C999       C1000   1.406       .  A
C999       C1004   1.396       .  A
C999       H1005   1.081       .  S
C1000      C1001   1.407       .  A
C1001      C1002   1.398       .  A
C1001      H1006   1.079       .  S
C1002      C1003   1.405       .  A
C1002      H1007   1.079       .  S
C1003      C1004   1.407       .  A
C1004      H1008   1.081       .  S
