geometry optimzed in LAMMPS
_audit_creation_date              2020-12-01 
_audit_creation_method            'lammps2cif' 
_symmetry_space_group_name_H-M    'P1' 
_symmetry_Int_Tables_number       1 
_symmetry_cell_setting            triclinic 
loop_ 
_symmetry_equiv_pos_as_xyz 
  x,y,z 
_cell_length_a                    56.06277164 
_cell_length_b                    56.13991082726055 
_cell_length_c                    35.09301182012842 
_cell_angle_alpha                 88.71497806343041 
_cell_angle_beta                  88.3198836715179 
_cell_angle_gamma                 89.89617218157667 
loop_ 
_atom_site_label 
_atom_site_type_symbol 
_atom_site_fract_x 
_atom_site_fract_y 
_atom_site_fract_z 
_atom_site_charge 
N1          N  0.29375586  0.50901655  0.04411420    -0.01600
C2          C  0.29449446  0.49091290  0.01928009     0.01000
C3          C  0.29317429  0.49953675  0.98221098    -0.21900
C4          C  0.29172253  0.52396166  0.98421839    -0.22100
C5          C  0.29234718  0.52919821  0.02246099     0.00900
H6          H  0.29303750  0.48916541  0.95663098     0.14700
H7          H  0.29094479  0.53651290  0.96042086     0.14800
N8          N  0.31313400  0.50746294  0.32685485    -0.01600
C9          C  0.32101716  0.52492123  0.34982439     0.01000
C10         C  0.32809374  0.51505773  0.38417531    -0.21900
C11         C  0.32438833  0.49096293  0.38259137    -0.22100
C12         C  0.31526350  0.48667727  0.34728931     0.00900
H13         H  0.33442301  0.52450940  0.40844487     0.14700
H14         H  0.32756988  0.47794300  0.40509059     0.14800
N15         N  0.06720605  0.72021019  0.29425759    -0.01600
C16         C  0.08742283  0.71698690  0.27311095     0.01000
C17         C  0.08245572  0.71431661  0.23517318    -0.21900
C18         C  0.05808935  0.71578943  0.23269484    -0.22100
C19         C  0.04933275  0.71952695  0.26929593     0.00900
H20         H  0.09525479  0.71181620  0.21203389     0.14700
H21         H  0.04794589  0.71492814  0.20698861     0.14800
N22         N  0.06356242  0.74621848  0.07963425    -0.01600
C23         C  0.08200906  0.74852632  0.10363248     0.01000
C24         C  0.07424265  0.75913115  0.13689400    -0.21900
C25         C  0.05029991  0.76357560  0.13340076    -0.22100
C26         C  0.04402360  0.75541211  0.09817266     0.00900
H27         H  0.08482491  0.76287211  0.16136176     0.14700
H28         H  0.03845377  0.77085422  0.15510616     0.14800
O29         O  0.32090402  0.77854294  0.30480490    -0.79000
O30         O  0.32281601  0.76487464  0.47942730    -0.63700
O31         O  0.32903831  0.75408428  0.37426935    -1.10300
C32         C  0.24784149  0.73534504  0.38361509     1.07900
O33         O  0.30078252  0.73259020  0.49182331    -0.76900
O34         O  0.29448620  0.70414711  0.43126850    -0.64500
Ni35       Ni  0.34582321  0.77655606  0.34160783     1.34900
C36         C  0.29954729  0.69976657  0.39660112     0.86700
O37         O  0.35981795  0.76321778  0.43222450    -0.77400
O38         O  0.37286210  0.77553233  0.37419467    -0.87700
C39         C  0.31323090  0.75002612  0.50243828     0.86200
O40         O  0.33437225  0.80540473  0.36387796    -0.65900
O41         O  0.25233387  0.72735242  0.41692722    -0.85200
C42         C  0.32635635  0.81027298  0.39703054     0.87100
C43         C  0.37647230  0.76924991  0.40872462     1.08600
H44         H  0.28467269  0.77026309  0.42532431     0.40400
O45         O  0.29311950  0.75548784  0.42116365    -1.07800
O46         O  0.29928000  0.71602731  0.37080490    -0.64500
Ni47       Ni  0.29575851  0.75033026  0.36807553     1.26300
O48         O  0.32258226  0.79425846  0.42274313    -0.51100
O49         O  0.26261775  0.74719012  0.36289950    -0.77000
C50         C  0.30856298  0.76131816  0.29310743     0.86400
O51         O  0.29932913  0.74599367  0.31558431    -0.64200
Ni52       Ni  0.27782885  0.73096104  0.45214535     1.27400
Ni53       Ni  0.32646770  0.75999305  0.42709312     1.26100
H54         H  0.33690826  0.73889278  0.37118776     0.41000
O55         O  0.28954499  0.74394775  0.24194928    -0.79000
O56         O  0.30272159  0.74317238  0.06584694    -0.63700
O57         O  0.31354241  0.73936600  0.17094192    -1.10300
C58         C  0.32063974  0.82190320  0.16296405     1.07900
O59         O  0.32740225  0.77301305  0.05035858    -0.76900
O60         O  0.35630908  0.77866949  0.10996148    -0.64500
Ni61       Ni  0.29166224  0.72069262  0.20229208     1.34900
C62         C  0.36269044  0.77448128  0.14388023     0.86700
O63         O  0.31045701  0.70783058  0.11293330    -0.77400
O64         O  0.29229964  0.69482464  0.16688785    -0.87700
C65         C  0.31390552  0.75597581  0.04161534     0.86200
O66         O  0.26242024  0.73254959  0.18202249    -0.65900
O67         O  0.33007878  0.81828733  0.13024012    -0.85200
C68         C  0.25735025  0.73641059  0.14739782     0.87100
C69         C  0.30120763  0.69134309  0.13359374     1.08600
H70         H  0.29037566  0.78035588  0.12117398     0.40400
O71         O  0.30643636  0.77462182  0.12443834    -1.07800
O72         O  0.34759763  0.77402789  0.17184961    -0.64500
Ni73       Ni  0.31283458  0.77276042  0.17739029     1.26300
O74         O  0.27350525  0.73881233  0.12142032    -0.64700
O75         O  0.31076399  0.80582241  0.18346202    -0.77000
C76         C  0.30529506  0.75843185  0.25271520     0.86400
O77         O  0.31865582  0.76990996  0.22955869    -0.64200
Ni78       Ni  0.32790931  0.79384050  0.09300735     1.27400
Ni79       Ni  0.30798400  0.74101561  0.11809969     1.26100
H80         H  0.32947242  0.73328237  0.17474613     0.41000
N81         N  0.56124246  0.76644643  0.17898346    -0.01600
C82         C  0.54155812  0.76828178  0.15696405     0.01000
C83         C  0.54832465  0.77385790  0.11965573    -0.21900
C84         C  0.57269019  0.77533105  0.11821407    -0.22100
C85         C  0.58040935  0.77061886  0.15469186     0.00900
H86         H  0.53670763  0.77607551  0.09572366     0.14700
H87         H  0.58370764  0.77852701  0.09277106     0.14800
N88         N  0.56198927  0.73754887  0.46236798    -0.01600
C89         C  0.54302520  0.73325589  0.48615468     0.01000
C90         C  0.55033818  0.72735665  0.52238745    -0.21900
C91         C  0.57487185  0.72824471  0.52097483    -0.22100
C92         C  0.58147721  0.73486777  0.48394903     0.00900
H93         H  0.53903697  0.72368750  0.54733722     0.14700
H94         H  0.58650338  0.72559149  0.54477417     0.14800
O95         O  0.82517677  0.72781679  0.46606711    -0.79000
O96         O  0.82830377  0.74269255  0.28851632    -0.63700
O97         O  0.83213564  0.75111871  0.39455283    -1.10300
C98         C  0.74827657  0.76165607  0.38621944     1.07900
O99         O  0.80573157  0.77462322  0.28167172    -0.76900
O100        O  0.78811945  0.79945120  0.34104985    -0.64500
Ni101      Ni  0.84840597  0.72751288  0.42434919     1.34900
C102        C  0.79608707  0.80404239  0.37354295     0.86700
O103        O  0.86419586  0.74567365  0.33438075    -0.77400
O104        O  0.87448549  0.72571509  0.38736492    -0.87700
C105        C  0.81814455  0.75787511  0.26764519     0.86200
O106        O  0.83295325  0.70046294  0.40394995    -0.65900
O107        O  0.75204337  0.76690520  0.35102261    -0.85200
C108        C  0.82883057  0.69581901  0.36950385     0.87100
C109        C  0.87944829  0.73522073  0.35474852     1.08600
H110        H  0.79018758  0.73266459  0.34647543     0.40400
O111        O  0.79711155  0.74823621  0.34950738    -1.07800
O112        O  0.80115762  0.78792430  0.39792880    -0.64500
Ni113      Ni  0.79849401  0.75388612  0.40245603     1.26300
O114        O  0.82931865  0.71194445  0.34341118    -0.64700
O115        O  0.76473031  0.75640626  0.40923712    -0.77000
C116        C  0.81201891  0.74481831  0.47764328     0.86400
O117        O  0.80140533  0.75876584  0.45501431    -0.64200
Ni118      Ni  0.77974284  0.77014544  0.31801646     1.27400
Ni119      Ni  0.83075979  0.74646294  0.34127822     1.26100
H120        H  0.83970271  0.76626454  0.39858584     0.41000
O121        O  0.79245638  0.76113833  0.02964553    -0.79000
O122        O  0.80420239  0.76497395  0.20658553    -0.63700
O123        O  0.81336592  0.76844664  0.09973023    -1.10300
C124        C  0.82107724  0.68444160  0.11641117     1.07900
O125        O  0.83632322  0.74245808  0.21226336    -0.76900
O126        O  0.86052639  0.72139262  0.15456721    -0.64500
Ni127      Ni  0.78893956  0.78320863  0.07051303     1.34900
C128        C  0.86664818  0.73157766  0.12311718     0.86700
O129        O  0.80661353  0.80048201  0.15649825    -0.77400
O130        O  0.78356518  0.80819896  0.10683720    -0.87700
C131        C  0.81988177  0.75528703  0.22678670     0.86200
O132        O  0.76347632  0.76432140  0.09230661    -0.65900
O133        O  0.82482836  0.68773410  0.15161174    -0.85200
C134        C  0.75795297  0.76181300  0.12748916     0.87100
C135        C  0.79343558  0.81429675  0.13740061     1.08600
H136        H  0.79423572  0.72685247  0.15166542     0.40400
O137        O  0.80999325  0.73368665  0.14809649    -1.07800
O138        O  0.85131117  0.73861684  0.09931602    -0.64500
Ni139      Ni  0.81715582  0.73490032  0.09529319     1.26300
O140        O  0.77317225  0.76520022  0.15317089    -0.64700
O141        O  0.81992236  0.70133602  0.09181130    -0.77000
C142        C  0.80921548  0.74715040  0.01948626     0.86400
O143        O  0.82307589  0.73715660  0.04255597    -0.64200
Ni144      Ni  0.83038597  0.71576106  0.18050240     1.27400
Ni145      Ni  0.80796723  0.76717110  0.15324660     1.26100
H146        H  0.82816025  0.77648958  0.09392334     0.41000
N147        N  0.79607393  0.49969364  0.03864432    -0.01600
C148        C  0.79406392  0.52047550  0.01857752     0.01000
C149        C  0.79220420  0.51629974  0.98010123    -0.21900
C150        C  0.79345090  0.49200136  0.97620474    -0.22100
C151        C  0.79596181  0.48236209  0.01240526     0.00900
H152        H  0.79086139  0.52948388  0.95728370     0.14700
H153        H  0.79241773  0.48238383  0.94997740     0.14800
N154        N  0.81309065  0.50070507  0.32279283    -0.01600
C155        C  0.81756625  0.52065765  0.34286470     0.01000
C156        C  0.81941581  0.51498540  0.38111995    -0.21900
C157        C  0.81590236  0.49090446  0.38502567    -0.22100
C158        C  0.81180487  0.48238595  0.34911523     0.00900
H159        H  0.82278625  0.52715608  0.40383709     0.14700
H160        H  0.81657557  0.48055216  0.41131997     0.14800
N161        N  0.81410383  0.99557845  0.44374566    -0.01600
C162        C  0.81383060  0.97707579  0.41938570     0.01000
C163        C  0.82128291  0.98439850  0.38316056    -0.21900
C164        C  0.82639205  0.00816636  0.38493723    -0.22100
C165        C  0.82187740  0.01468154  0.42218710     0.00900
H166        H  0.82246142  0.97361755  0.35797731     0.14700
H167        H  0.83165645  0.01979224  0.36114943     0.14800
N168        N  0.78414088  0.99796449  0.21529398    -0.01600
C169        C  0.77997768  0.97828924  0.23717303     0.01000
C170        C  0.77776929  0.98375758  0.27527955    -0.21900
C171        C  0.78049895  0.00801920  0.27698072    -0.22100
C172        C  0.78453473  0.01608132  0.23985696     0.00900
H173        H  0.77502455  0.97141982  0.29914196     0.14700
H174        H  0.78037568  0.01851401  0.30248415     0.14800
O175        O  0.80333836  0.22538270  0.28988366    -0.79000
O176        O  0.79842630  0.23397757  0.46444307    -0.63700
O177        O  0.79023468  0.24556350  0.35937456    -1.10300
C178        C  0.87176053  0.26950751  0.36153021     1.07900
O179        O  0.81728895  0.26825432  0.47151571    -0.76900
O180        O  0.82993238  0.29815885  0.41253365    -0.64500
Ni181      Ni  0.77826784  0.22120799  0.32798070     1.34900
C182        C  0.81894583  0.30389726  0.38250538     0.86700
O183        O  0.76071701  0.23065202  0.41975554    -0.77400
O184        O  0.75159393  0.21602339  0.36265319    -0.87700
C185        C  0.80705344  0.24968785  0.48532062     0.86200
O186        O  0.79472825  0.19410231  0.34895783    -0.65900
O187        O  0.86914254  0.27062732  0.39767061    -0.85200
C188        C  0.80126700  0.18953060  0.38269630     0.87100
C189        C  0.74626418  0.22104369  0.39716349     1.08600
H190        H  0.83590124  0.23255291  0.40194636     0.40400
O191        O  0.82648245  0.24698089  0.40144291    -1.07800
O192        O  0.81355033  0.28852983  0.35790565    -0.64500
Ni193      Ni  0.82232455  0.25546771  0.34954942     1.26300
O194        O  0.80133017  0.20528948  0.40816382    -0.64700
O195        O  0.85475361  0.26451572  0.33992702    -0.77000
C196        C  0.81055498  0.24541265  0.27648950     0.86400
O197        O  0.81672712  0.26193149  0.29788958    -0.64200
Ni198      Ni  0.84232309  0.26885787  0.43294775     1.27400
Ni199      Ni  0.79371893  0.23876582  0.41187026     1.26100
H200        H  0.77976198  0.25915765  0.35688601     0.41000
O201        O  0.82658011  0.26481287  0.22198924    -0.79000
O202        O  0.81570825  0.26040609  0.04655165    -0.63700
O203        O  0.80316939  0.26758406  0.15206286    -1.10300
C204        C  0.80026733  0.18343109  0.15078751     1.07900
O205        O  0.78564242  0.23537107  0.04117922    -0.76900
O206        O  0.76014685  0.22095894  0.10273585    -0.64500
Ni207      Ni  0.82328114  0.28761172  0.18075456     1.34900
C208        C  0.75378713  0.22918025  0.13481868     0.86700
O209        O  0.80905740  0.29779712  0.08909357    -0.77400
O210        O  0.82129650  0.31307636  0.14340732    -0.87700
C211        C  0.80141328  0.24917020  0.02650344     0.86200
O212        O  0.85329194  0.27733768  0.15993684    -0.65900
O213        O  0.79358812  0.18599051  0.11657177    -0.85200
C214        C  0.85949967  0.26987641  0.12726026     0.87100
C215        C  0.81476042  0.31531540  0.10903065     1.08600
H216        H  0.82630929  0.22536276  0.10673983     0.40400
O217        O  0.81015829  0.23147132  0.10986553    -1.07800
O218        O  0.76881199  0.23390578  0.16010886    -0.64500
Ni219      Ni  0.80338178  0.23418121  0.16279742     1.26300
O220        O  0.84441211  0.26530677  0.10203293    -0.64700
O221        O  0.80458762  0.20077710  0.17213634    -0.77000
C222        C  0.81178990  0.24957446  0.23572707     0.86400
O223        O  0.79795595  0.23801790  0.21534722    -0.64200
Ni224      Ni  0.79015136  0.21178018  0.08068501     1.27400
Ni225      Ni  0.81000808  0.26466007  0.09904407     1.26100
H226        H  0.78717137  0.27363558  0.15510829     0.41000
N227        N  0.55518299  0.23921470  0.18147043    -0.01600
C228        C  0.53636144  0.24572752  0.15969067     0.01000
C229        C  0.54427046  0.25121653  0.12287630    -0.21900
C230        C  0.56858666  0.24810726  0.12175481    -0.22100
C231        C  0.57491760  0.24083714  0.15791653     0.00900
H232        H  0.53337027  0.25621954  0.09902918     0.14700
H233        H  0.58043528  0.25082360  0.09715315     0.14800
N234        N  0.55900074  0.20218299  0.46159116    -0.01600
C235        C  0.57667239  0.19671763  0.48570391     0.01000
C236        C  0.56750973  0.19396710  0.52260637    -0.21900
C237        C  0.54327640  0.19787271  0.52094507    -0.22100
C238        C  0.53870161  0.20313073  0.48320278     0.00900
H239        H  0.57743697  0.19022848  0.54805046     0.14700
H240        H  0.53058584  0.19784120  0.54478476     0.14800
N241        N  0.31030391  0.00647141  0.44021161    -0.01600
C242        C  0.31012504  0.98706761  0.41755303     0.01000
C243        C  0.30306338  0.99357345  0.38138210    -0.21900
C244        C  0.29873321  0.01765579  0.38154804    -0.22100
C245        C  0.30338488  0.02525109  0.41777791     0.00900
H246        H  0.30137122  0.98200398  0.35735383     0.14700
H247        H  0.29367484  0.02864714  0.35736034     0.14800
N248        N  0.33582903  0.00559413  0.22693228    -0.01600
C249        C  0.33848471  0.02505007  0.24821996     0.01000
C250        C  0.34196618  0.01896803  0.28598931    -0.21900
C251        C  0.34133298  0.99452021  0.28821449    -0.22100
C252        C  0.33759625  0.98697511  0.25165689     0.00900
H253        H  0.34367509  0.03096245  0.30947111     0.14700
H254        H  0.34299038  0.98347400  0.31366370     0.14800
N255        N  0.05848817  0.28944396  0.29108683    -0.01600
C256        C  0.04033004  0.29332231  0.26701500     0.01000
C257        C  0.04911159  0.29887193  0.23066460    -0.21900
C258        C  0.07358832  0.29817582  0.23232356    -0.22100
C259        C  0.07878291  0.29241581  0.26966038     0.00900
H260        H  0.03885396  0.30226760  0.20545822     0.14700
H261        H  0.08622230  0.30130915  0.20884017     0.14800
N262        N  0.05628326  0.26469979  0.08058422    -0.01600
C263        C  0.07478801  0.26667289  0.10457889     0.01000
C264        C  0.06689245  0.26341746  0.14198357    -0.21900
C265        C  0.04278444  0.25929463  0.14122209    -0.22100
C266        C  0.03666376  0.26021080  0.10336087     0.00900
H267        H  0.07762145  0.26371042  0.16709988     0.14700
H268        H  0.03085131  0.25653923  0.16572968     0.14800
O269        O  0.30018650  0.27881670  0.46638255    -0.79000
O270        O  0.29815084  0.26563747  0.29263872    -0.63700
O271        O  0.29272739  0.25430190  0.39886301    -1.10300
C272        C  0.37575036  0.24047912  0.38844154     1.07900
O273        O  0.32102721  0.23394671  0.28241513    -0.76900
O274        O  0.33079305  0.20619931  0.34435567    -0.64500
Ni275      Ni  0.27515318  0.27599678  0.43031364     1.34900
C276        C  0.32479519  0.20123783  0.37880246     0.86700
O277        O  0.26136437  0.26336401  0.34029502    -0.77400
O278        O  0.24804574  0.27463811  0.39804420    -0.87700
C279        C  0.30737626  0.25054461  0.27063752     0.86200
O280        O  0.28556693  0.30522544  0.40627312    -0.65900
O281        O  0.37133867  0.23287068  0.35536279    -0.85200
C282        C  0.29358968  0.31059031  0.37296974     0.87100
C283        C  0.24474156  0.26959577  0.36333946     1.08600
H284        H  0.33617447  0.27238885  0.34692406     0.40400
O285        O  0.32837947  0.25715472  0.35167992    -1.07800
O286        O  0.32361194  0.21705466  0.40421931    -0.64500
Ni287      Ni  0.32629056  0.25150100  0.40520760     1.26300
O288        O  0.29786462  0.29491478  0.34800976    -0.64700
O289        O  0.35988379  0.24951151  0.41028350    -0.77000
C290        C  0.31322090  0.26218587  0.47947380     0.86400
O291        O  0.32304768  0.24703165  0.45826172    -0.64200
Ni292      Ni  0.34490153  0.23417516  0.32117952     1.27400
Ni293      Ni  0.29487600  0.26060035  0.34555248     1.26100
H294        H  0.28542033  0.23893961  0.40281299     0.41000
O295        O  0.32793287  0.24333187  0.03298032    -0.79000
O296        O  0.31518156  0.24074221  0.20732001    -0.63700
O297        O  0.30292092  0.23658940  0.10267983    -1.10300
C298        C  0.29648247  0.32021728  0.10745508     1.07900
O299        O  0.28627536  0.26679255  0.21901251    -0.76900
O300        O  0.25839089  0.27899689  0.15953923    -0.64500
Ni301      Ni  0.32415391  0.21832071  0.07091076     1.34900
C302        C  0.25253337  0.27302370  0.12636865     0.86700
O303        O  0.30891590  0.20459623  0.16212327    -0.77400
O304        O  0.32150717  0.19134695  0.10521187    -0.87700
C305        C  0.30259602  0.25272343  0.23020839     0.86200
O306        O  0.35411717  0.22718310  0.09165454    -0.65900
O307        O  0.28890670  0.31676345  0.14179279    -0.85200
C308        C  0.35950632  0.23392153  0.12462170     0.87100
C309        C  0.31499567  0.18791097  0.13999363     1.08600
H310        H  0.32488334  0.27803781  0.14901214     0.40400
O311        O  0.30897215  0.27175236  0.14668635    -1.07800
O312        O  0.26798054  0.27024604  0.09951635    -0.64500
Ni313      Ni  0.30249061  0.27010551  0.09404442     1.26300
O314        O  0.34362688  0.23812336  0.15013526    -0.64700
O315        O  0.30322337  0.30352594  0.08595101    -0.77000
C316        C  0.31137917  0.25647977  0.02029533     0.86400
O317        O  0.29689880  0.26708184  0.04208615    -0.64200
Ni318      Ni  0.28800968  0.29041422  0.17816672     1.27400
Ni319      Ni  0.30927345  0.23809630  0.15517470     1.26100
H320        H  0.28703766  0.23022002  0.10016930     0.41000
C321        C  0.13753492  0.29017546  0.10732063     0.14600
C322        C  0.15086296  0.27016242  0.09598941     0.01500
C323        C  0.13882046  0.25064694  0.08099558     0.16500
C324        C  0.11376155  0.25046667  0.08006548     0.25900
C325        C  0.10044252  0.26974289  0.09418640    -0.40400
C326        C  0.11255896  0.28989032  0.10670527     0.33000
C327        C  0.17691460  0.26898668  0.10323942     0.01600
F328        F  0.15120948  0.23109226  0.06983549    -0.12700
F329        F  0.10008476  0.30882889  0.12021081    -0.13200
C330        C  0.18480779  0.26843178  0.14089495     0.16500
C331        C  0.20924256  0.26875709  0.14840604     0.25900
C332        C  0.22654330  0.26996471  0.11831923    -0.40300
C333        C  0.21847781  0.26944732  0.08046402     0.32900
C334        C  0.19395211  0.26889485  0.07311687     0.14600
F335        F  0.16871733  0.26754088  0.17059117    -0.12700
F336        F  0.23421582  0.27020743  0.05031616    -0.13200
F337        F  0.21586314  0.26788445  0.18531722    -0.15500
F338        F  0.18681175  0.26905394  0.03647532    -0.14100
F339        F  0.14872973  0.30963517  0.12050604    -0.14100
F340        F  0.10243715  0.23065416  0.06850459    -0.15500
C341        C  0.13507110  0.30003648  0.32466852     0.14600
C342        C  0.14988723  0.28267350  0.30804757     0.01500
C343        C  0.14132379  0.26880390  0.27863264     0.16500
C344        C  0.11809080  0.27202959  0.26629968     0.25900
C345        C  0.10314344  0.28910464  0.28329604    -0.40400
C346        C  0.11178107  0.30322981  0.31236765     0.33000
C347        C  0.17415772  0.27873300  0.32182195     0.01600
F348        F  0.15533217  0.25182398  0.26243867    -0.12700
F349        F  0.09793016  0.32051301  0.32803156    -0.13200
C350        C  0.17744199  0.27070303  0.35946021     0.16500
C351        C  0.20041518  0.26722658  0.37285690     0.25900
C352        C  0.22044359  0.27172101  0.34870324    -0.40300
C353        C  0.21705538  0.27917409  0.31062704     0.32900
C354        C  0.19406587  0.28276341  0.29738410     0.14600
F355        F  0.15833088  0.26596999  0.38306654    -0.12700
F356        F  0.23598651  0.28382842  0.28657541    -0.13200
F357        F  0.20305888  0.25906035  0.40920695    -0.15500
F358        F  0.19122792  0.29079713  0.26100117    -0.14100
F359        F  0.14337036  0.31415451  0.35226071    -0.14100
F360        F  0.10995097  0.25811274  0.23833109    -0.15500
C361        C  0.06726397  0.29131081  0.98252884     0.14600
C362        C  0.05758496  0.27386608  0.95939888     0.01500
C363        C  0.04796698  0.25302374  0.97663108     0.16500
C364        C  0.04772216  0.24989014  0.01642905     0.25900
C365        C  0.05711322  0.26753102  0.03958393    -0.40400
C366        C  0.06697476  0.28820162  0.02222194     0.33000
C367        C  0.05737155  0.27592601  0.41148478     0.01600
F368        F  0.03835571  0.23597644  0.95495628    -0.12700
F369        F  0.07559522  0.30577840  0.04383646    -0.13200
C370        C  0.06615073  0.25861562  0.38624494     0.16500
C371        C  0.06603236  0.26283330  0.34667610     0.25900
C372        C  0.05684853  0.28425085  0.33160679    -0.40300
C373        C  0.04734997  0.30119785  0.35669377     0.32900
C374        C  0.04779679  0.29718705  0.39626736     0.14600
F375        F  0.07551592  0.23793422  0.39995624    -0.12700
F376        F  0.03850021  0.32204757  0.34277556    -0.13200
F377        F  0.07485522  0.24601823  0.32290373    -0.15500
F378        F  0.03895488  0.31412824  0.41982669    -0.14100
F379        F  0.07698159  0.31143599  0.96655438    -0.14100
F380        F  0.03854335  0.22953309  0.03239128    -0.15500
C381        C  0.30732059  0.07813354  0.20762128     0.14600
C382        C  0.32622954  0.09429161  0.20374169     0.01500
C383        C  0.34908456  0.08807465  0.21578981     0.16500
C384        C  0.35304764  0.06547941  0.23143276     0.25900
C385        C  0.33423220  0.04914853  0.23440266    -0.40400
C386        C  0.31132901  0.05551786  0.22288550     0.33000
C387        C  0.32197391  0.11778692  0.18729626     0.01600
F388        F  0.36745856  0.10374785  0.21183518    -0.12700
F389        F  0.29293224  0.03985881  0.22668514    -0.13200
C390        C  0.31710565  0.13677669  0.21129002     0.16500
C391        C  0.31360377  0.15945348  0.19584310     0.25900
C392        C  0.31545533  0.16342489  0.15596507    -0.40300
C393        C  0.31931397  0.14383933  0.13197470     0.32900
C394        C  0.32251251  0.12113301  0.14771241     0.14600
F395        F  0.31603414  0.13332712  0.24974081    -0.12700
F396        F  0.32021632  0.14655383  0.09340570    -0.13200
F397        F  0.30907319  0.17749160  0.22017378    -0.15500
F398        F  0.32652651  0.10242907  0.12446106    -0.14100
F399        F  0.28510526  0.08434982  0.19657691    -0.14100
F400        F  0.37523646  0.05924243  0.24259684    -0.15500
C401        C  0.28653235  0.09052690  0.41862721     0.14600
C402        C  0.30898056  0.10131860  0.42188669     0.01500
C403        C  0.32873970  0.08678273  0.43036614     0.16500
C404        C  0.32644830  0.06187656  0.43283443     0.25900
C405        C  0.30437384  0.05101782  0.42674037    -0.40400
C406        C  0.28430044  0.06560662  0.42073498     0.33000
C407        C  0.31247681  0.12706380  0.41148758     0.01600
F408        F  0.35058653  0.09669264  0.43416797    -0.12700
F409        F  0.26274455  0.05559609  0.41471020    -0.13200
C410        C  0.30124706  0.14531052  0.43228772     0.16500
C411        C  0.30505054  0.16943445  0.42185409     0.25900
C412        C  0.31981186  0.17576501  0.38986992    -0.40300
C413        C  0.33054816  0.15730633  0.36878580     0.32900
C414        C  0.32698522  0.13338306  0.37953377     0.14600
F415        F  0.28685469  0.13978013  0.46299295    -0.12700
F416        F  0.34511690  0.16234304  0.33808907    -0.13200
F417        F  0.29401898  0.18652897  0.44275032    -0.15500
F418        F  0.33757733  0.11621950  0.35823860    -0.14100
F419        F  0.26711685  0.10397998  0.41044426    -0.14100
F420        F  0.34624586  0.04830753  0.43762652    -0.15500
C421        C  0.30730847  0.99478964  0.13258414     0.14600
C422        C  0.32462344  0.00420429  0.10651596     0.01500
C423        C  0.34539437  0.01431642  0.12087157     0.16500
C424        C  0.34893170  0.01479643  0.16024641     0.25900
C425        C  0.33185441  0.00511033  0.18627651    -0.40400
C426        C  0.31091226  0.99523700  0.17210072     0.33000
C427        C  0.32261159  0.00655497  0.55990219     0.01600
F428        F  0.36222483  0.02397823  0.09660940    -0.12700
F429        F  0.29377768  0.98644480  0.19661419    -0.13200
C430        C  0.30172722  0.01666124  0.54522006     0.16500
C431        C  0.29786993  0.01678885  0.50594022     0.25900
C432        C  0.31477980  0.00680637  0.48052721    -0.40300
C433        C  0.33572893  0.99681094  0.49515921     0.32900
C434        C  0.33960948  0.99669638  0.53447671     0.14600
F435        F  0.28513963  0.02661725  0.56893261    -0.12700
F436        F  0.35263038  0.98754179  0.47131174    -0.13200
F437        F  0.27727411  0.02612998  0.49273335    -0.15500
F438        F  0.35983671  0.98662578  0.54785813    -0.14100
F439        F  0.28710944  0.98480172  0.11975691    -0.14100
F440        F  0.36932610  0.02434821  0.17305691    -0.15500
C441        C  0.47345539  0.20227752  0.46072053     0.14600
C442        C  0.47060589  0.22459589  0.44253546     0.01500
C443        C  0.49024954  0.23992429  0.43763204     0.16500
C444        C  0.51247920  0.23304892  0.45118652     0.25900
C445        C  0.51532471  0.21061083  0.46913643    -0.40400
C446        C  0.49568698  0.19533547  0.47395927     0.33000
C447        C  0.44701262  0.23151443  0.42861807     0.01600
F448        F  0.48775738  0.26165339  0.42041710    -0.12700
F449        F  0.49820023  0.17350241  0.49079830    -0.13200
C450        C  0.42794858  0.23499090  0.45464126     0.16500
C451        C  0.40485069  0.23845746  0.44168972     0.25900
C452        C  0.40045333  0.23845229  0.40226662    -0.40300
C453        C  0.41994024  0.23606479  0.37625434     0.32900
C454        C  0.44301962  0.23267159  0.38939119     0.14600
F455        F  0.43171202  0.23453557  0.49271284    -0.12700
F456        F  0.41671574  0.23687866  0.33805422    -0.13200
F457        F  0.38675407  0.24087492  0.46790578    -0.15500
F458        F  0.46137244  0.22961153  0.36384285    -0.14100
F459        F  0.45472811  0.18705723  0.46498704    -0.14100
F460        F  0.53098649  0.24857752  0.44790024    -0.15500
C461        C  0.42786098  0.23326692  0.11705430     0.14600
C462        C  0.43429272  0.24077628  0.15331923     0.01500
C463        C  0.41607833  0.24668970  0.17980982     0.16500
C464        C  0.39193185  0.24455106  0.17058173     0.25900
C465        C  0.38532636  0.23675666  0.13422546    -0.40400
C466        C  0.40379704  0.23119425  0.10762221     0.33000
C467        C  0.46005255  0.24174866  0.16320133     0.01600
F468        F  0.42164173  0.25400308  0.21507104    -0.12700
F469        F  0.39872425  0.22337109  0.07245966    -0.13200
C470        C  0.47142083  0.26361799  0.16930998     0.16500
C471        C  0.49640998  0.26471402  0.17181120     0.25900
C472        C  0.51042199  0.24389202  0.16965387    -0.40300
C473        C  0.49885290  0.22190211  0.16612410     0.32900
C474        C  0.47396552  0.22084910  0.16282009     0.14600
F475        F  0.45855216  0.28412545  0.16996205    -0.12700
F476        F  0.51188570  0.20165366  0.16228918    -0.13200
F477        F  0.50710776  0.28632438  0.17357105    -0.15500
F478        F  0.46349889  0.19946911  0.15726769    -0.14100
F479        F  0.44504932  0.22802491  0.09047240    -0.14100
F480        F  0.37508388  0.24981945  0.19769694    -0.15500
C481        C  0.54676820  0.24312882  0.28777846     0.14600
C482        C  0.55801622  0.22207970  0.30042241     0.01500
C483        C  0.56725281  0.20623569  0.27321827     0.16500
C484        C  0.56550228  0.21144938  0.23418067     0.25900
C485        C  0.55480543  0.23275842  0.22152768    -0.40400
C486        C  0.54523141  0.24843150  0.24868207     0.33000
C487        C  0.55964851  0.21637313  0.34187122     0.01600
F488        F  0.57841101  0.18589624  0.28450566    -0.12700
F489        F  0.53512238  0.26927631  0.23734018    -0.13200
C490        C  0.54936230  0.19532394  0.35736108     0.16500
C491        C  0.54990838  0.19036681  0.39656385     0.25900
C492        C  0.56087287  0.20621032  0.42093485    -0.40300
C493        C  0.57197586  0.22677984  0.40549591     0.32900
C494        C  0.57118215  0.23196960  0.36627547     0.14600
F495        F  0.53806616  0.17994887  0.33466330    -0.12700
F496        F  0.58259381  0.24231180  0.42873203    -0.13200
F497        F  0.53956240  0.17014738  0.41102378    -0.15500
F498        F  0.58155412  0.25226724  0.35213880    -0.14100
F499        F  0.53715012  0.25849624  0.31333173    -0.14100
F500        F  0.57411227  0.19557795  0.20863671    -0.15500
C501        C  0.68668086  0.23338718  0.12030609     0.14600
C502        C  0.67738819  0.23569345  0.15775408     0.01500
C503        C  0.69355658  0.23815473  0.18740869     0.16500
C504        C  0.71836431  0.23694065  0.18002121     0.25900
C505        C  0.72760988  0.23296920  0.14278820    -0.40400
C506        C  0.71130483  0.23194853  0.11291256     0.33000
C507        C  0.65089786  0.23486828  0.16512045     0.01600
F508        F  0.68537979  0.24084170  0.22384288    -0.12700
F509        F  0.71906102  0.22956381  0.07615860    -0.13200
C510        C  0.63743363  0.21626031  0.15016880     0.16500
C511        C  0.61245611  0.21725083  0.15076515     0.25900
C512        C  0.60022786  0.23636940  0.16761999    -0.40300
C513        C  0.61346674  0.25385262  0.18574559     0.32900
C514        C  0.63860722  0.25327089  0.18421147     0.14600
F515        F  0.64855330  0.19750882  0.13345807    -0.12700
F516        F  0.60209300  0.27251981  0.20221834    -0.13200
F517        F  0.60016571  0.20009676  0.13303320    -0.15500
F518        F  0.65083040  0.27162045  0.19885953    -0.14100
F519        F  0.67180252  0.23253761  0.09050659    -0.14100
F520        F  0.73322304  0.23900585  0.20962168    -0.15500
C521        C  0.97470954  0.28134296  0.08078448     0.14600
C522        C  0.96112298  0.26128996  0.09238490     0.01500
C523        C  0.97286000  0.23984498  0.10120757     0.16500
C524        C  0.99781200  0.23890534  0.10119525     0.25900
C525        C  0.01145894  0.25932487  0.09187887    -0.40400
C526        C  0.99975432  0.28033890  0.08041306     0.33000
C527        C  0.93511567  0.26345245  0.10059736     0.01600
F528        F  0.96006929  0.22021786  0.11217764    -0.12700
F529        F  0.01248628  0.30048919  0.07256334    -0.13200
C530        C  0.91866598  0.26418639  0.07123494     0.16500
C531        C  0.89408720  0.26569341  0.07978242     0.25900
C532        C  0.88551407  0.26689090  0.11800121    -0.40300
C533        C  0.90227074  0.26614038  0.14729488     0.32900
C534        C  0.92672644  0.26443465  0.13860008     0.14600
F535        F  0.92641357  0.26338077  0.03427515    -0.12700
F536        F  0.89508506  0.26685673  0.18454128    -0.13200
F537        F  0.87878290  0.26644868  0.05050457    -0.15500
F538        F  0.94238805  0.26401315  0.16741233    -0.14100
F539        F  0.96373504  0.30237786  0.07288055    -0.14100
F540        F  0.00867116  0.21846188  0.11276070    -0.15500
C541        C  0.69413991  0.20125164  0.46093240     0.14600
C542        C  0.67491969  0.20521983  0.43677310     0.01500
C543        C  0.67927237  0.21408177  0.39951940     0.16500
C544        C  0.70254496  0.21902518  0.38661884     0.25900
C545        C  0.72180713  0.21554082  0.41102279    -0.40400
C546        C  0.71743766  0.20649273  0.44822458     0.33000
C547        C  0.65020981  0.20138205  0.45101640     0.01600
F548        F  0.66089142  0.21871495  0.37607352    -0.12700
F549        F  0.73575009  0.20217860  0.47190403    -0.13200
C550        C  0.64134119  0.21449682  0.48195011     0.16500
C551        C  0.61753898  0.21224910  0.49401779     0.25900
C552        C  0.60225817  0.19692466  0.47522434    -0.40300
C553        C  0.61130344  0.18306067  0.44527268     0.32900
C554        C  0.63512754  0.18544260  0.43297349     0.14600
F555        F  0.65547911  0.23031455  0.49933063    -0.12700
F556        F  0.59713492  0.16715987  0.42815872    -0.13200
F557        F  0.60911131  0.22594460  0.52286093    -0.15500
F558        F  0.64347856  0.17230564  0.40341012    -0.14100
F559        F  0.69028913  0.19216770  0.49676465    -0.14100
F560        F  0.70616133  0.22797898  0.35063340    -0.15500
C561        C  0.98259508  0.26525815  0.30278114     0.14600
C562        C  0.96625897  0.28362153  0.29551066     0.01500
C563        C  0.97405160  0.30478300  0.27720289     0.16500
C564        C  0.99824657  0.30790203  0.26763752     0.25900
C565        C  0.01480787  0.28994252  0.27661872    -0.40400
C566        C  0.00672506  0.26833343  0.29320543     0.33000
C567        C  0.94173715  0.28150619  0.31103503     0.01600
F568        F  0.95837478  0.32265319  0.26987518    -0.12700
F569        F  0.02209292  0.25005344  0.29945797    -0.13200
C570        C  0.93740163  0.28533854  0.34986971     0.16500
C571        C  0.91470237  0.28173733  0.36618424     0.25900
C572        C  0.89575974  0.27414941  0.34377108    -0.40300
C573        C  0.90020355  0.27086568  0.30429390     0.32900
C574        C  0.92307032  0.27448124  0.28818368     0.14600
F575        F  0.95540413  0.29229774  0.37216006    -0.12700
F576        F  0.88266108  0.26371611  0.28124884    -0.13200
F577        F  0.91149254  0.28556427  0.40404896    -0.15500
F578        F  0.92715459  0.27054560  0.25052451    -0.14100
F579        F  0.97513306  0.24450803  0.31977639    -0.14100
F580        F  0.00563820  0.32872420  0.25079588    -0.15500
C581        C  0.77845006  0.08204917  0.22712570     0.14600
C582        C  0.80053180  0.08789839  0.20957818     0.01500
C583        C  0.81758157  0.07013738  0.20245469     0.16500
C584        C  0.81241362  0.04652753  0.21242425     0.25900
C585        C  0.79014339  0.04068918  0.22934330    -0.40400
C586        C  0.77331468  0.05849012  0.23710752     0.33000
C587        C  0.80440038  0.11212098  0.19490826     0.01600
F588        F  0.83898797  0.07570763  0.18547217    -0.12700
F589        F  0.75162840  0.05286687  0.25304553    -0.13200
C590        C  0.80538834  0.13113710  0.21993193     0.16500
C591        C  0.80482467  0.15449886  0.20570646     0.25900
C592        C  0.80309985  0.15897221  0.16613624    -0.40300
C593        C  0.80375079  0.13962238  0.14113618     0.32900
C594        C  0.80425891  0.11640357  0.15552728     0.14600
F595        F  0.80614261  0.12699308  0.25815919    -0.12700
F596        F  0.80349069  0.14300465  0.10270557    -0.13200
F597        F  0.80508273  0.17255464  0.23080585    -0.15500
F598        F  0.80332093  0.09802094  0.13108590    -0.14100
F599        F  0.76151989  0.09902360  0.23292566    -0.14100
F600        F  0.82914940  0.02945910  0.20602765    -0.15500
C601        C  0.79782266  0.07682181  0.42771176     0.14600
C602        C  0.81888668  0.09030701  0.42354996     0.01500
C603        C  0.84102205  0.07860484  0.42574928     0.16500
C604        C  0.84199235  0.05368378  0.42993828     0.25900
C605        C  0.82089179  0.04011730  0.43217915    -0.40400
C606        C  0.79880675  0.05194637  0.43178262     0.33000
C607        C  0.81733119  0.11623885  0.41417015     0.01600
F608        F  0.86165366  0.09118574  0.42218152    -0.12700
F609        F  0.77823894  0.03924583  0.43118957    -0.13200
C610        C  0.80817549  0.13204871  0.44132369     0.16500
C611        C  0.80361936  0.15590923  0.43128032     0.25900
C612        C  0.80808945  0.16457368  0.39363179    -0.40300
C613        C  0.81761769  0.14868194  0.36653314     0.32900
C614        C  0.82236700  0.12482102  0.37682450     0.14600
F615        F  0.80295688  0.12412963  0.47744611    -0.12700
F616        F  0.82201204  0.15610142  0.32991682    -0.13200
F617        F  0.79344406  0.17014578  0.45799154    -0.15500
F618        F  0.83089873  0.10978514  0.34986470    -0.14100
F619        F  0.77626091  0.08765200  0.42484287    -0.14100
F620        F  0.86353696  0.04257869  0.42896920    -0.15500
C621        C  0.82028423  0.99879461  0.55003004     0.14600
C622        C  0.79712310  0.99273456  0.56371171     0.01500
C623        C  0.77975700  0.98727182  0.53698415     0.16500
C624        C  0.78525081  0.98845512  0.49764476     0.25900
C625        C  0.80825859  0.99481726  0.48415915    -0.40400
C626        C  0.82577083  0.99974586  0.51070088     0.33000
C627        C  0.79208193  0.99966910  0.09357719     0.01600
F628        F  0.75752543  0.98042759  0.54900741    -0.12700
F629        F  0.84835520  0.00506525  0.49842446    -0.13200
C630        C  0.77203862  0.01014137  0.11173951     0.16500
C631        C  0.76969908  0.00997469  0.15172327     0.25900
C632        C  0.78719303  0.99920931  0.17424379    -0.40300
C633        C  0.80732422  0.98905099  0.15623946     0.32900
C634        C  0.80978004  0.98928795  0.11637605     0.14600
F635        F  0.75490224  0.02083959  0.09080306    -0.12700
F636        F  0.82478032  0.97915339  0.17739686    -0.13200
F637        F  0.75014597  0.01995486  0.16859861    -0.15500
F638        F  0.82933148  0.97896876  0.09998138    -0.14100
F639        F  0.83753751  0.00424125  0.57474451    -0.14100
F640        F  0.76798690  0.98378838  0.47258003    -0.15500
C641        C  0.79035555  0.41982122  0.37187087     0.14600
C642        C  0.80635856  0.40589840  0.35033765     0.01500
C643        C  0.82175444  0.41746193  0.32331898     0.16500
C644        C  0.82224168  0.44257680  0.31992275     0.25900
C645        C  0.80713201  0.45650953  0.34322597    -0.40400
C646        C  0.79060656  0.44472188  0.36815233     0.33000
C647        C  0.80831328  0.37970483  0.35877567     0.01600
F648        F  0.83750761  0.40450920  0.30218596    -0.12700
F649        F  0.77547301  0.45750925  0.39068229    -0.13200
C650        C  0.80201732  0.36274061  0.33198794     0.16500
C651        C  0.80431290  0.33815920  0.34018626     0.25900
C652        C  0.81334881  0.32988488  0.37534011    -0.40300
C653        C  0.81886790  0.34713383  0.40258024     0.32900
C654        C  0.81633836  0.37158606  0.39436768     0.14600
F655        F  0.79349287  0.36999900  0.29783545    -0.12700
F656        F  0.82713966  0.34052187  0.43723978    -0.13200
F657        F  0.79803399  0.32254791  0.31326862    -0.15500
F658        F  0.82237529  0.38747793  0.42106197    -0.14100
F659        F  0.77506208  0.40928940  0.39778418    -0.14100
F660        F  0.83883054  0.45319208  0.29631242    -0.15500
C661        C  0.81518113  0.38247372  0.09673915     0.14600
C662        C  0.80871170  0.38524965  0.05865920     0.01500
C663        C  0.80510296  0.36524341  0.03655427     0.16500
C664        C  0.80737934  0.34247244  0.05268204     0.25900
C665        C  0.81344537  0.33943600  0.09135976    -0.40400
C666        C  0.81754666  0.35979932  0.11306591     0.33000
C667        C  0.80421307  0.40917736  0.04312056     0.01600
F668        F  0.79853501  0.36779252  0.99974266    -0.12700
F669        F  0.82326180  0.35796895  0.15035671    -0.13200
C670        C  0.82030209  0.41984695  0.01661014     0.16500
C671        C  0.81717530  0.44364736  0.00544614     0.25900
C672        C  0.79797547  0.45679004  0.02088161    -0.40300
C673        C  0.78126492  0.44567490  0.04577515     0.32900
C674        C  0.78440467  0.42197152  0.05693155     0.14600
F675        F  0.83953250  0.40756656  0.00307615    -0.12700
F676        F  0.76206238  0.45788206  0.05949988    -0.13200
F677        F  0.83358993  0.45424034  0.98145683    -0.15500
F678        F  0.76839982  0.41154022  0.08181219    -0.14100
F679        F  0.81882222  0.40186041  0.11829386    -0.14100
F680        F  0.80313008  0.32353145  0.03044855    -0.15500
C681        C  0.81865332  0.48426299  0.13641079     0.14600
C682        C  0.80240623  0.49676796  0.15998923     0.01500
C683        C  0.78323027  0.50877109  0.14302192     0.16500
C684        C  0.78055329  0.50857109  0.10349029     0.25900
C685        C  0.79734587  0.49701221  0.07974259    -0.40400
C686        C  0.81622411  0.48447801  0.09667678     0.33000
C687        C  0.80539800  0.49745367  0.20212504     0.01600
F688        F  0.76743670  0.52138069  0.16463755    -0.12700
F689        F  0.83291973  0.47332588  0.07470642    -0.13200
C690        C  0.82681465  0.50559677  0.21736236     0.16500
C691        C  0.82932353  0.50662145  0.25697301     0.25900
C692        C  0.81053670  0.49950744  0.28209900    -0.40300
C693        C  0.78914564  0.49156713  0.26702250     0.32900
C694        C  0.78659079  0.49048353  0.22746513     0.14600
F695        F  0.84513156  0.51305116  0.19389507    -0.12700
F696        F  0.77051331  0.48542440  0.29073737    -0.13200
F697        F  0.85022190  0.51428407  0.27091285    -0.15500
F698        F  0.76575578  0.48239743  0.21387792    -0.14100
F699        F  0.83695530  0.47188068  0.15186544    -0.14100
F700        F  0.76160754  0.51996395  0.08818212    -0.15500
C701        C  0.80906194  0.63314910  0.05135724     0.14600
C702        C  0.80575555  0.61422086  0.07762620     0.01500
C703        C  0.80780113  0.61819470  0.11672751     0.16500
C704        C  0.81344052  0.64081903  0.12946908     0.25900
C705        C  0.81687106  0.65997463  0.10317047    -0.40400
C706        C  0.81448353  0.65580015  0.06387246     0.33000
C707        C  0.80183577  0.59001518  0.06390927     0.01600
F708        F  0.80409943  0.60013526  0.14261303    -0.12700
F709        F  0.81742010  0.67354366  0.03719514    -0.13200
C710        C  0.81858116  0.57212544  0.07181571     0.16500
C711        C  0.81595084  0.54948593  0.05717584     0.25900
C712        C  0.79644444  0.54434853  0.03454750    -0.40300
C713        C  0.77972898  0.56227732  0.02634353     0.32900
C714        C  0.78234222  0.58499171  0.04112724     0.14600
F715        F  0.83806994  0.57690930  0.09240809    -0.12700
F716        F  0.76081737  0.55771524  0.00433511    -0.13200
F717        F  0.83309309  0.53291829  0.06369958    -0.15500
F718        F  0.76590254  0.60207210  0.03327808    -0.14100
F719        F  0.80760008  0.62957787  0.01334297    -0.14100
F720        F  0.81509072  0.64391490  0.16756868    -0.15500
C721        C  0.78602621  0.86462574  0.20556845     0.14600
C722        C  0.78302881  0.88403176  0.18035567     0.01500
C723        C  0.78252404  0.88045290  0.14095657     0.16500
C724        C  0.78542188  0.85761058  0.12678754     0.25900
C725        C  0.78906069  0.83819730  0.15197605    -0.40400
C726        C  0.78915478  0.84186999  0.19151686     0.33000
C727        C  0.78184125  0.90815936  0.19515894     0.01600
F728        F  0.78021695  0.89920967  0.11620885    -0.12700
F729        F  0.79215983  0.82342827  0.21665726    -0.13200
C730        C  0.80093478  0.91679028  0.21585213     0.16500
C731        C  0.80001311  0.93965915  0.23005525     0.25900
C732        C  0.78026037  0.95417825  0.22304217    -0.40300
C733        C  0.76121460  0.94578080  0.20220179     0.32900
C734        C  0.76189134  0.92267091  0.18854364     0.14600
F735        F  0.82062684  0.90320579  0.22163057    -0.12700
F736        F  0.74195268  0.95982552  0.19565943    -0.13200
F737        F  0.81864187  0.94794025  0.24978790    -0.15500
F738        F  0.74304763  0.91430168  0.16943200    -0.14100
F739        F  0.78608089  0.86779378  0.24383397    -0.14100
F740        F  0.78577560  0.85467384  0.08846868    -0.15500
C741        C  0.82286075  0.62813151  0.37711586     0.14600
C742        C  0.82026015  0.62183791  0.33897108     0.01500
C743        C  0.81868615  0.63999276  0.31098298     0.16500
C744        C  0.82067461  0.66406333  0.32083975     0.25900
C745        C  0.82423123  0.67046902  0.35910463    -0.40400
C746        C  0.82476129  0.65202903  0.38714936     0.33000
C747        C  0.82042018  0.59616697  0.32914780     0.01600
F748        F  0.81598944  0.63439229  0.27392503    -0.12700
F749        F  0.82767212  0.65690473  0.42444655    -0.13200
C750        C  0.79914023  0.58413867  0.32153565     0.16500
C751        C  0.79857667  0.55904928  0.32144631     0.25900
C752        C  0.81935231  0.54573494  0.32857411    -0.40300
C753        C  0.84092851  0.55793876  0.33307491     0.32900
C754        C  0.84147376  0.58286897  0.33327442     0.14600
F755        F  0.77855030  0.59659106  0.31754250    -0.12700
F756        F  0.86113931  0.54559263  0.34074602    -0.13200
F757        F  0.77732697  0.54780536  0.31838910    -0.15500
F758        F  0.86229067  0.59404244  0.34035538    -0.14100
F759        F  0.82389999  0.61092135  0.40483802    -0.14100
F760        F  0.81965961  0.68096540  0.29264030    -0.15500
C761        C  0.80572152  0.87112586  0.36743976     0.14600
C762        C  0.80208835  0.87742499  0.40577308     0.01500
C763        C  0.79708152  0.85954871  0.43333334     0.16500
C764        C  0.79550259  0.83572247  0.42282170     0.25900
C765        C  0.79887727  0.82928707  0.38438651    -0.40400
C766        C  0.80401052  0.84729092  0.35676316     0.33000
C767        C  0.80257087  0.90278686  0.41655879     0.01600
F768        F  0.79286458  0.86529740  0.47029221    -0.12700
F769        F  0.80759293  0.84183880  0.31951751    -0.13200
C770        C  0.78532806  0.91857984  0.40252032     0.16500
C771        C  0.78730540  0.94302630  0.40829636     0.25900
C772        C  0.80674175  0.95214717  0.42771314    -0.40300
C773        C  0.82302767  0.93623640  0.44427673     0.32900
C774        C  0.82087237  0.91162415  0.43891691     0.14600
F775        F  0.76726936  0.91040449  0.38143683    -0.12700
F776        F  0.84226233  0.94466610  0.46231908    -0.13200
F777        F  0.77135778  0.95808181  0.39205822    -0.15500
F778        F  0.83768836  0.89663650  0.45290372    -0.14100
F779        F  0.81098027  0.88812480  0.34035270    -0.14100
F780        F  0.78960676  0.81906706  0.45012481    -0.15500
C781        C  0.63359917  0.76802634  0.43767808     0.14600
C782        C  0.65245380  0.75255055  0.44592567     0.01500
C783        C  0.64820463  0.73173393  0.46787895     0.16500
C784        C  0.62505331  0.72595885  0.48038630     0.25900
C785        C  0.60599293  0.74113263  0.47138058    -0.40400
C786        C  0.61055994  0.76262567  0.45108276     0.33000
C787        C  0.67645386  0.75733231  0.43008070     0.01600
F788        F  0.66642236  0.71667967  0.47609937    -0.12700
F789        F  0.59292026  0.77875372  0.44524258    -0.13200
C790        C  0.69471961  0.76415117  0.45393419     0.16500
C791        C  0.71808773  0.76621914  0.43946778     0.25900
C792        C  0.72341732  0.76126922  0.40096098    -0.40300
C793        C  0.70480182  0.75517112  0.37691364     0.32900
C794        C  0.68146391  0.75331323  0.39142859     0.14600
F795        F  0.68990338  0.76848484  0.49129434    -0.12700
F796        F  0.70930832  0.74982360  0.33984098    -0.13200
F797        F  0.73545540  0.77304275  0.46308641    -0.15500
F798        F  0.66386803  0.74655117  0.36818534    -0.14100
F799        F  0.63757336  0.78837828  0.41683450    -0.14100
F800        F  0.62117428  0.70527161  0.50036842    -0.15500
C801        C  0.64062083  0.74231815  0.17611261     0.14600
C802        C  0.65632926  0.75897689  0.15836994     0.01500
C803        C  0.64701542  0.78042280  0.14389000     0.16500
C804        C  0.62246090  0.78495198  0.14600555     0.25900
C805        C  0.60641904  0.76801032  0.16233424    -0.40400
C806        C  0.61583143  0.74678989  0.17809953     0.33000
C807        C  0.68248360  0.75453550  0.15415950     0.01600
F808        F  0.66175729  0.79673637  0.12643781    -0.12700
F809        F  0.60099411  0.72968284  0.19293852    -0.13200
C810        C  0.69227170  0.74545319  0.12010714     0.16500
C811        C  0.71700930  0.74628598  0.11247183     0.25900
C812        C  0.73251762  0.75637278  0.13871202    -0.40300
C813        C  0.72275088  0.76357558  0.17418712     0.32900
C814        C  0.69798879  0.76286317  0.18158334     0.14600
F815        F  0.67773657  0.73688245  0.09335038    -0.12700
F816        F  0.73690588  0.77287328  0.20082142    -0.13200
F817        F  0.72568327  0.73786428  0.07882298    -0.15500
F818        F  0.68896733  0.77170374  0.21468634    -0.14100
F819        F  0.64917540  0.72135284  0.19008528    -0.14100
F820        F  0.61419435  0.80566026  0.13056516    -0.15500
C821        C  0.55006086  0.73889587  0.27668672     0.14600
C822        C  0.56221441  0.75467223  0.29983520     0.01500
C823        C  0.57411704  0.77434562  0.28268537     0.16500
C824        C  0.57380461  0.77817668  0.24303905     0.25900
C825        C  0.56165069  0.76235966  0.21980530    -0.40400
C826        C  0.54978587  0.74268681  0.23707120     0.33000
C827        C  0.56235991  0.75052160  0.34182403     0.01600
F828        F  0.58623830  0.78969953  0.30434384    -0.12700
F829        F  0.53836971  0.72682026  0.21545915    -0.13200
C830        C  0.57378906  0.73036400  0.35730772     0.16500
C831        C  0.57343141  0.72609651  0.39681297     0.25900
C832        C  0.56166895  0.74188520  0.42159560    -0.40300
C833        C  0.55030670  0.76211415  0.40611861     0.32900
C834        C  0.55069233  0.76641083  0.36658172     0.14600
F835        F  0.58554753  0.71496067  0.33411305    -0.12700
F836        F  0.53968825  0.77821030  0.42934744    -0.13200
F837        F  0.58439712  0.70638700  0.41102779    -0.15500
F838        F  0.53951881  0.78601372  0.35238831    -0.14100
F839        F  0.53822037  0.71991134  0.29261306    -0.14100
F840        F  0.58491291  0.79765759  0.22737098    -0.15500
C841        C  0.43018644  0.76973785  0.12635140     0.14600
C842        C  0.43885720  0.76642475  0.16336099     0.01500
C843        C  0.42221490  0.76530223  0.19419799     0.16500
C844        C  0.39754172  0.76753425  0.18813326     0.25900
C845        C  0.38882859  0.77080617  0.15090362    -0.40400
C846        C  0.40568073  0.77158234  0.12013761     0.33000
C847        C  0.46521937  0.76384111  0.16884469     0.01600
F848        F  0.42979343  0.76162935  0.23024188    -0.12700
F849        F  0.39863201  0.77434835  0.08360810    -0.13200
C850        C  0.47781922  0.77911534  0.19260441     0.16500
C851        C  0.50302605  0.77903628  0.19220480     0.25900
C852        C  0.51598856  0.76380450  0.16790011    -0.40300
C853        C  0.50330779  0.74736780  0.14657593     0.32900
C854        C  0.47834632  0.74724865  0.14725239     0.14600
F855        F  0.46584683  0.79534880  0.21396989    -0.12700
F856        F  0.51523901  0.73228462  0.12301440    -0.13200
F857        F  0.51467444  0.79515264  0.21308379    -0.15500
F858        F  0.46695613  0.73153150  0.12524532    -0.14100
F859        F  0.44558953  0.77171117  0.09584364    -0.14100
F860        F  0.38227914  0.76652591  0.21888339    -0.15500
C861        C  0.32876975  0.87202645  0.23015632     0.14600
C862        C  0.32428527  0.89163266  0.20605699     0.01500
C863        C  0.31762589  0.88834295  0.16837503     0.16500
C864        C  0.31627607  0.86547019  0.15431483     0.25900
C865        C  0.32143847  0.84579690  0.17801069    -0.40400
C866        C  0.32730164  0.84910209  0.21619510     0.33000
C867        C  0.32819073  0.91563852  0.21922319     0.01600
F868        F  0.31267844  0.90733956  0.14526631    -0.12700
F869        F  0.33259868  0.83023385  0.23935786    -0.13200
C870        C  0.34728975  0.92897353  0.20339454     0.16500
C871        C  0.35063136  0.95228612  0.21445755     0.25900
C872        C  0.33496137  0.96221369  0.24154950    -0.40300
C873        C  0.31626081  0.94868483  0.25820401     0.32900
C874        C  0.31280324  0.92539567  0.24691287     0.14600
F875        F  0.36263860  0.91930486  0.17734766    -0.12700
F876        F  0.30088592  0.95838189  0.28417377    -0.13200
F877        F  0.36919663  0.96509776  0.19907991    -0.15500
F878        F  0.29415049  0.91260740  0.26203821    -0.14100
F879        F  0.33545717  0.87519461  0.26658570    -0.14100
F880        F  0.30966622  0.86248153  0.11780656    -0.15500
C881        C  0.44376505  0.76363039  0.40655144     0.14600
C882        C  0.44796207  0.75722221  0.44454013     0.01500
C883        C  0.42908790  0.75689633  0.47155258     0.16500
C884        C  0.40593955  0.76203018  0.46041129     0.25900
C885        C  0.40132413  0.76752183  0.42178053    -0.40400
C886        C  0.42068878  0.76886727  0.39519531     0.33000
C887        C  0.47207424  0.75059961  0.45592414     0.01600
F888        F  0.43298788  0.75071201  0.50849364    -0.12700
F889        F  0.41734533  0.77434511  0.35785379    -0.13200
C890        C  0.48450031  0.76528749  0.48026896     0.16500
C891        C  0.50745909  0.75911260  0.49095411     0.25900
C892        C  0.51828669  0.73841795  0.47686703    -0.40300
C893        C  0.50593657  0.72369298  0.45253186     0.32900
C894        C  0.48279916  0.72970451  0.44221571     0.14600
F895        F  0.47465473  0.78595566  0.49258687    -0.12700
F896        F  0.51629632  0.70360785  0.43889524    -0.13200
F897        F  0.51964706  0.77391568  0.51346390    -0.15500
F898        F  0.47080760  0.71520466  0.41897312    -0.14100
F899        F  0.46205744  0.76448780  0.38032217    -0.14100
F900        F  0.38808119  0.76095885  0.48741016    -0.15500
C901        C  0.32253800  0.86858406  0.45153676     0.14600
C902        C  0.31965533  0.88543266  0.42174968     0.01500
C903        C  0.31692193  0.87722754  0.38453937     0.16500
C904        C  0.31804278  0.85285438  0.37688030     0.25900
C905        C  0.32210317  0.83589854  0.40624657    -0.40400
C906        C  0.32380979  0.84407567  0.44390565     0.33000
C907        C  0.32011112  0.91163186  0.42839965     0.01600
F908        F  0.31322888  0.89297211  0.35534543    -0.12700
F909        F  0.32784653  0.82850336  0.47318011    -0.13200
C910        C  0.33724158  0.92595151  0.40884136     0.16500
C911        C  0.33512579  0.95081386  0.40831553     0.25900
C912        C  0.31610460  0.96197593  0.42792780    -0.40300
C913        C  0.30015987  0.94784715  0.45028085     0.32900
C914        C  0.30214671  0.92282024  0.45055212     0.14600
F915        F  0.35541571  0.91574033  0.38861299    -0.12700
F916        F  0.28148535  0.95814931  0.46911786    -0.13200
F917        F  0.35092329  0.96402139  0.38676608    -0.15500
F918        F  0.28547022  0.90952333  0.47005249    -0.14100
F919        F  0.32512026  0.87590735  0.48779078    -0.14100
F920        F  0.31516370  0.84588853  0.34049896    -0.15500
C921        C  0.20106256  0.73267164  0.08844504     0.14600
C922        C  0.18280792  0.73621926  0.11606386     0.01500
C923        C  0.18922433  0.74044485  0.15383271     0.16500
C924        C  0.21326427  0.74084739  0.16391524     0.25900
C925        C  0.23168442  0.73726154  0.13638313    -0.40400
C926        C  0.22517466  0.73325122  0.09837267     0.33000
C927        C  0.15705212  0.73585740  0.10599651     0.01600
F928        F  0.17210449  0.74459160  0.18107018    -0.12700
F929        F  0.24208592  0.72911053  0.07080858    -0.13200
C930        C  0.14098485  0.72056363  0.12603140     0.16500
C931        C  0.11633704  0.72300201  0.12166488     0.25900
C932        C  0.10716772  0.74083479  0.09748856    -0.40300
C933        C  0.12314057  0.75468988  0.07481661     0.32900
C934        C  0.14793169  0.75215571  0.07888509     0.14600
F935        F  0.14913815  0.70390473  0.15111983    -0.12700
F936        F  0.11473170  0.77196914  0.05108038    -0.13200
F937        F  0.10121852  0.70871563  0.14257152    -0.15500
F938        F  0.16289752  0.76692635  0.05854504    -0.14100
F939        F  0.19554002  0.72795619  0.05196149    -0.14100
F940        F  0.21843133  0.74502660  0.20071698    -0.15500
C941        C  0.92543348  0.74857172  0.07037576     0.14600
C942        C  0.94234684  0.74307885  0.09797415     0.01500
C943        C  0.93442748  0.73374433  0.13354298     0.16500
C944        C  0.91006469  0.72996684  0.14159624     0.25900
C945        C  0.89279059  0.73542973  0.11409517    -0.40400
C946        C  0.90095834  0.74463842  0.07813648     0.33000
C947        C  0.96834360  0.74693547  0.09022957     0.01600
F948        F  0.95041236  0.72851322  0.16084854    -0.12700
F949        F  0.88537863  0.74963331  0.05015157    -0.13200
C950        C  0.97826272  0.76981425  0.09239925     0.16500
C951        C  0.00313463  0.77286578  0.09141902     0.25900
C952        C  0.01856950  0.75313200  0.08774781    -0.40300
C953        C  0.00856123  0.73046064  0.08317134     0.32900
C954        C  0.98368466  0.72738187  0.08472305     0.14600
F955        F  0.96389610  0.78897891  0.09814280    -0.12700
F956        F  0.02281944  0.71095930  0.08091022    -0.13200
F957        F  0.01221002  0.79496377  0.09633224    -0.15500
F958        F  0.97454596  0.70507303  0.08304383    -0.14100
F959        F  0.93267216  0.75750846  0.03568221    -0.14100
F960        F  0.90353804  0.72102102  0.17661715    -0.15500
C961        C  0.15021329  0.73638003  0.28863406     0.14600
C962        C  0.15698785  0.72032703  0.31766152     0.01500
C963        C  0.14114545  0.70239534  0.33074150     0.16500
C964        C  0.11840815  0.70109749  0.31597583     0.25900
C965        C  0.11151703  0.71752663  0.28771439    -0.40400
C966        C  0.12764494  0.73480142  0.27345587     0.33000
C967        C  0.18031714  0.72278212  0.33501612     0.01600
F968        F  0.14780187  0.68612081  0.35761185    -0.12700
F969        F  0.12117350  0.75067238  0.24584027    -0.13200
C970        C  0.18170118  0.72631610  0.37439878     0.16500
C971        C  0.20378800  0.72975252  0.39065594     0.25900
C972        C  0.22463877  0.73025426  0.36748945    -0.40300
C973        C  0.22322477  0.72621266  0.32817301     0.32900
C974        C  0.20121803  0.72235066  0.31212366     0.14600
F975        F  0.16158295  0.72724625  0.39684095    -0.12700
F976        F  0.24320803  0.72561496  0.30535073    -0.13200
F977        F  0.20468027  0.73350074  0.42867893    -0.15500
F978        F  0.20028963  0.71808351  0.27424631    -0.14100
F979        F  0.16514246  0.75405258  0.27593355    -0.14100
F980        F  0.10327619  0.68363855  0.32876906    -0.15500
C981        C  0.99301062  0.74947565  0.30371991     0.14600
C982        C  0.97619349  0.73148647  0.29808221     0.01500
C983        C  0.98340640  0.70997858  0.28164278     0.16500
C984        C  0.00729952  0.70627407  0.27167119     0.25900
C985        C  0.02421004  0.72381636  0.27883887    -0.40400
C986        C  0.01700149  0.74558641  0.29430017     0.33000
C987        C  0.95144568  0.73419668  0.31191902     0.01600
F988        F  0.96743696  0.69223268  0.27671066    -0.12700
F989        F  0.03312184  0.76313313  0.29963800    -0.13200
C990        C  0.93261756  0.73251984  0.28667012     0.16500
C991        C  0.90908067  0.73274546  0.30057772     0.25900
C992        C  0.90416982  0.73440630  0.34000366    -0.40300
C993        C  0.92309931  0.73630143  0.36513237     0.32900
C994        C  0.94658163  0.73641637  0.35110808     0.14600
F995        F  0.93709477  0.73046998  0.24863642    -0.12700
F996        F  0.91887541  0.73842448  0.40320825    -0.13200
F997        F  0.89115105  0.73067367  0.27565395    -0.15500
F998        F  0.96463406  0.73800216  0.37590204    -0.14100
F999        F  0.98615684  0.77068327  0.31838523    -0.14100
F1000       F  0.01409236  0.68526403  0.25625559    -0.15500
C1001       C  0.05324353  0.70822825  0.39841245     0.14600
C1002       C  0.06338907  0.72818266  0.41536268     0.01500
C1003       C  0.07394766  0.74600536  0.39154379     0.16500
C1004       C  0.07495525  0.74351928  0.35176514     0.25900
C1005       C  0.06518697  0.72336319  0.33503793    -0.40400
C1006       C  0.05407653  0.70589593  0.35866170     0.33000
C1007       C  0.06953819  0.72188233  0.96529857     0.01600
F1008       F  0.08383279  0.76552332  0.40685586    -0.12700
F1009       F  0.04473531  0.68617369  0.34317990    -0.13200
C1010       C  0.07580573  0.70684048  0.99610071     0.16500
C1011       C  0.07352558  0.71469563  0.03368188     0.25900
C1012       C  0.06502041  0.73771497  0.04117170    -0.40300
C1013       C  0.05873647  0.75274170  0.01051714     0.32900
C1014       C  0.06102226  0.74494246  0.97292217     0.14600
F1015       F  0.08425790  0.68455814  0.98974472    -0.12700
F1016       F  0.05073787  0.77515156  0.01706449    -0.13200
F1017       F  0.07905415  0.69964571  0.06290961    -0.15500
F1018       F  0.05440118  0.75973912  0.94397050    -0.14100
F1019       F  0.04247380  0.69097366  0.42046815    -0.14100
F1020       F  0.08537784  0.76081963  0.32940779    -0.15500
C1021       C  0.30150270  0.37753660  0.38301368     0.14600
C1022       C  0.30045654  0.38610262  0.34507895     0.01500
C1023       C  0.29870626  0.36947279  0.31584857     0.16500
C1024       C  0.29730505  0.34487994  0.32457825     0.25900
C1025       C  0.29745489  0.33639154  0.36283112    -0.40400
C1026       C  0.29992203  0.35314621  0.39179517     0.33000
C1027       C  0.30093323  0.41241886  0.33714138     0.01600
F1028       F  0.29742906  0.37705222  0.27895630    -0.12700
F1029       F  0.30088463  0.34599970  0.42894588    -0.13200
C1030       C  0.31898356  0.42314634  0.31374873     0.16500
C1031       C  0.32224939  0.44804544  0.31345687     0.25900
C1032       C  0.30760545  0.46245626  0.33663851    -0.40300
C1033       C  0.28838989  0.45191871  0.35726216     0.32900
C1034       C  0.28485719  0.42726853  0.35705268     0.14600
F1035       F  0.33463716  0.40944806  0.29369623    -0.12700
F1036       F  0.27399441  0.46542306  0.37989898    -0.13200
F1037       F  0.34089964  0.45780648  0.29314578    -0.15500
F1038       F  0.26648854  0.41769837  0.37829923    -0.14100
F1039       F  0.30414440  0.39292349  0.41191056    -0.14100
F1040       F  0.29483969  0.32951506  0.29562164    -0.15500
C1041       C  0.33647622  0.59002775  0.35803173     0.14600
C1042       C  0.31433332  0.60104608  0.35250378     0.01500
C1043       C  0.29530533  0.58728322  0.33967706     0.16500
C1044       C  0.29799082  0.56254504  0.33508272     0.25900
C1045       C  0.31975348  0.55124976  0.34328885    -0.40400
C1046       C  0.33918617  0.56544490  0.35340606     0.33000
C1047       C  0.31081353  0.62633982  0.36339170     0.01600
F1048       F  0.27371115  0.59752848  0.33400052    -0.12700
F1049       F  0.36060089  0.55524547  0.36069256    -0.13200
C1050       C  0.31013262  0.64469033  0.33565864     0.16500
C1051       C  0.30740345  0.66854670  0.34634499     0.25900
C1052       C  0.30493135  0.67461149  0.38526277    -0.40300
C1053       C  0.30621865  0.65601602  0.41295356     0.32900
C1054       C  0.30913619  0.63225159  0.40208081     0.14600
F1055       F  0.31233897  0.63951055  0.29811648    -0.12700
F1056       F  0.30463541  0.66068355  0.45073340    -0.13200
F1057       F  0.30699696  0.68560854  0.31832907    -0.15500
F1058       F  0.31011056  0.61484823  0.42949804    -0.14100
F1059       F  0.35525282  0.60299660  0.36957826    -0.14100
F1060       F  0.27877583  0.54942137  0.32585974    -0.15500
C1061       C  0.27633809  0.59271017  0.04480161     0.14600
C1062       C  0.29515346  0.59878358  0.06813520     0.01500
C1063       C  0.31344265  0.58242475  0.07526398     0.16500
C1064       C  0.31276108  0.55987261  0.05966964     0.25900
C1065       C  0.29359950  0.55342207  0.03717600    -0.40400
C1066       C  0.27557673  0.57006230  0.02925944     0.33000
C1067       C  0.29618760  0.62242326  0.08451084     0.01600
F1068       F  0.33196036  0.58841527  0.09722211    -0.12700
F1069       F  0.25702277  0.56415469  0.00734157    -0.13200
C1070       C  0.28491386  0.62672129  0.11978794     0.16500
C1071       C  0.28691003  0.64896047  0.13630375     0.25900
C1072       C  0.30012902  0.66729219  0.11741204    -0.40300
C1073       C  0.31140224  0.66266404  0.08173387     0.32900
C1074       C  0.30943168  0.64036622  0.06559301     0.14600
F1075       F  0.27203519  0.60930336  0.13824043    -0.12700
F1076       F  0.32438059  0.67959079  0.06221891    -0.13200
F1077       F  0.27564701  0.65250006  0.17049439    -0.15500
F1078       F  0.32049630  0.63620519  0.03142808    -0.14100
F1079       F  0.25880239  0.60869941  0.03724593    -0.14100
F1080       F  0.33102746  0.54450397  0.06589217    -0.15500
C1081       C  0.31581103  0.42724991  0.02660088     0.14600
C1082       C  0.29749279  0.41688484  0.04945981     0.01500
C1083       C  0.27798348  0.43079369  0.06157623     0.16500
C1084       C  0.27708402  0.45499323  0.05192144     0.25900
C1085       C  0.29558715  0.46548381  0.02975253    -0.40400
C1086       C  0.31481960  0.45148534  0.01669117     0.33000
C1087       C  0.29918150  0.39200265  0.06311291     0.01600
F1088       F  0.25982070  0.42082381  0.08280115    -0.12700
F1089       F  0.33296680  0.46150921  0.99548501    -0.13200
C1090       C  0.30211429  0.38726178  0.10207277     0.16500
C1091       C  0.30138499  0.36392202  0.11640912     0.25900
C1092       C  0.29775108  0.34485907  0.09189476    -0.40300
C1093       C  0.29584553  0.34961085  0.05241597     0.32900
C1094       C  0.29648364  0.37308476  0.03818154     0.14600
F1095       F  0.30560240  0.40538812  0.12627117    -0.12700
F1096       F  0.29261619  0.33166456  0.02775749    -0.13200
F1097       F  0.30464235  0.35998549  0.15421829    -0.15500
F1098       F  0.29367780  0.37741599  0.00035361    -0.14100
F1099       F  0.33490105  0.41408943  0.01494333    -0.14100
F1100       F  0.25798770  0.46811432  0.06364943    -0.15500
C1101       C  0.31567958  0.49670422  0.14283992     0.14600
C1102       C  0.29818466  0.50815798  0.16549208     0.01500
C1103       C  0.27863035  0.51890245  0.14770284     0.16500
C1104       C  0.27679680  0.51847475  0.10797400     0.25900
C1105       C  0.29457422  0.50749351  0.08526068    -0.40400
C1106       C  0.31396232  0.49650506  0.10310316     0.33000
C1107       C  0.30089948  0.50953236  0.20742503     0.01600
F1108       F  0.26173725  0.53051877  0.16869845    -0.12700
F1109       F  0.33185561  0.48664898  0.08187179    -0.13200
C1110       C  0.32127492  0.52021950  0.22200072     0.16500
C1111       C  0.32477396  0.52029124  0.26129846     0.25900
C1112       C  0.30797545  0.50970342  0.28688950    -0.40300
C1113       C  0.28712070  0.49982523  0.27249415     0.32900
C1114       C  0.28359466  0.49974531  0.23307124     0.14600
F1115       F  0.33795800  0.53041038  0.19803700    -0.12700
F1116       F  0.27021542  0.49022078  0.29662745    -0.13200
F1117       F  0.34516386  0.52975973  0.27429741    -0.15500
F1118       F  0.26366476  0.48942517  0.21987454    -0.14100
F1119       F  0.33460462  0.48589852  0.15926487    -0.14100
F1120       F  0.25777779  0.52904455  0.09151480    -0.15500
N1121       N  0.28037043  0.51073687  0.54364247    -0.01600
C1122       C  0.28043638  0.49304127  0.51798774     0.01000
C1123       C  0.27868419  0.50215976  0.48123660    -0.21900
C1124       C  0.27750328  0.52647346  0.48416861    -0.22100
C1125       C  0.27877417  0.53110810  0.52251911     0.00900
H1126       H  0.27868237  0.49222001  0.45515836     0.14700
H1127       H  0.27677737  0.53938881  0.46086205     0.14800
N1128       N  0.31017200  0.50786433  0.82551524    -0.01600
C1129       C  0.31839217  0.52507426  0.84890670     0.01000
C1130       C  0.32404966  0.51498584  0.88390073    -0.21900
C1131       C  0.31951216  0.49114262  0.88230401    -0.22100
C1132       C  0.31103026  0.48715532  0.84659011     0.00900
H1133       H  0.33013367  0.52414525  0.90862684     0.14700
H1134       H  0.32209486  0.47799413  0.90484329     0.14800
N1135       N  0.06972651  0.68934192  0.81031559    -0.01600
C1136       C  0.08835119  0.68400235  0.78661285     0.01000
C1137       C  0.08057838  0.67510051  0.75279909    -0.21900
C1138       C  0.05606409  0.67488017  0.75569089    -0.22100
C1139       C  0.04997574  0.68390191  0.79100652     0.00900
H1140       H  0.09152224  0.66959694  0.72864268     0.14700
H1141       H  0.04400408  0.66965370  0.73386328     0.14800
N1142       N  0.06140270  0.73254409  0.57984239    -0.01600
C1143       C  0.07984970  0.73174269  0.60432454     0.01000
C1144       C  0.07135823  0.73210438  0.64169682    -0.21900
C1145       C  0.04702410  0.73309860  0.64058980    -0.22100
C1146       C  0.04130704  0.73329873  0.60258353     0.00900
H1147       H  0.08184704  0.73179813  0.66712220     0.14700
H1148       H  0.03472417  0.73335278  0.66494030     0.14800
O1149       O  0.31655873  0.77862989  0.80547229    -0.79000
O1150       O  0.32088769  0.76488259  0.97751129    -0.63700
O1151       O  0.32551545  0.75307085  0.87273236    -1.10300
C1152       C  0.24538179  0.73287891  0.88277436     1.07900
O1153       O  0.29677107  0.73445953  0.99300961    -0.76900
O1154       O  0.29463307  0.70508191  0.93221601    -0.64500
Ni1155     Ni  0.34263638  0.77477895  0.83930411     1.34900
C1156       C  0.29770019  0.69985832  0.89736011     0.86700
O1157       O  0.35753093  0.76242791  0.92913277    -0.77400
O1158       O  0.37039189  0.77164759  0.86956979    -0.87700
C1159       C  0.31046862  0.75141426  0.00178509     0.86200
O1160       O  0.33413887  0.80418435  0.86288844    -0.65900
O1161       O  0.25104380  0.72427626  0.91518894    -0.85200
C1162       C  0.32536420  0.80928524  0.89547444     0.87100
C1163       C  0.37419914  0.76658435  0.90445689     1.08600
H1164       H  0.28179321  0.76991305  0.92512288     0.40400
O1165       O  0.29014206  0.75513044  0.92057461    -1.07800
O1166       O  0.29516330  0.71537919  0.87067626    -0.64500
Ni1167     Ni  0.29204275  0.74988559  0.86735744     1.26300
O1168       O  0.31989929  0.79337590  0.92048742    -0.51100
O1169       O  0.25867051  0.74700314  0.86320062    -0.77000
C1170       C  0.30500082  0.76130151  0.79255318     0.86400
O1171       O  0.29514325  0.74589564  0.81441142    -0.64200
Ni1172     Ni  0.27533271  0.73046081  0.95166822     1.27400
Ni1173     Ni  0.32377850  0.75931191  0.92533790     1.26100
H1174       H  0.33300966  0.73768682  0.86975049     0.41000
O1175       O  0.28583066  0.74714873  0.73923309    -0.79000
O1176       O  0.30098346  0.74404949  0.56544427    -0.63700
O1177       O  0.31039049  0.73792291  0.67069335    -1.10300
C1178       C  0.32664191  0.82048696  0.66000660     1.07900
O1179       O  0.33292293  0.76637448  0.55378931    -0.76900
O1180       O  0.35995255  0.77825279  0.61221223    -0.64500
Ni1181     Ni  0.28655611  0.72229789  0.70226685     1.34900
C1182       C  0.36528148  0.76899569  0.64418895     0.86700
O1183       O  0.30242203  0.70762385  0.61251076    -0.77400
O1184       O  0.28569813  0.69558913  0.66863470    -0.87700
C1185       C  0.31601500  0.75351777  0.54266554     0.86200
O1186       O  0.25855704  0.73555345  0.68008240    -0.65900
O1187       O  0.33125330  0.81727775  0.62476518    -0.85200
C1188       C  0.25444838  0.74142187  0.64576780     0.87100
C1189       C  0.29283569  0.69190410  0.63437269     1.08600
H1190       H  0.29388266  0.78169863  0.62234621     0.40400
O1191       O  0.30913520  0.77389020  0.62466302    -1.07800
O1192       O  0.34981695  0.76567016  0.67119489    -0.64500
Ni1193     Ni  0.31561343  0.77093688  0.67747026     1.26300
O1194       O  0.27107749  0.74373543  0.62061960    -0.64700
O1195       O  0.32036753  0.80403528  0.68354312    -0.77000
C1196       C  0.30347995  0.75843762  0.75185031     0.86400
O1197       O  0.31997707  0.76672828  0.73015529    -0.64200
Ni1198     Ni  0.33131357  0.79072498  0.59146747     1.27400
Ni1199     Ni  0.30536261  0.74064304  0.61787451     1.26100
H1200       H  0.32514987  0.72931852  0.67424983     0.41000
N1201       N  0.56228978  0.75971215  0.67099579    -0.01600
C1202       C  0.54297695  0.75715677  0.64873623     0.01000
C1203       C  0.54963176  0.75937590  0.61068393    -0.21900
C1204       C  0.57375068  0.76330583  0.60910146    -0.22100
C1205       C  0.58126679  0.76353560  0.64633009     0.00900
H1206       H  0.53799914  0.75879020  0.58668249     0.14700
H1207       H  0.58470845  0.76566096  0.58338824     0.14800
N1208       N  0.56344465  0.74414759  0.95720118    -0.01600
C1209       C  0.54399426  0.74213174  0.98099773     0.01000
C1210       C  0.55066584  0.73823671  0.01824260    -0.21900
C1211       C  0.57515370  0.73776180  0.01757708    -0.22100
C1212       C  0.58244395  0.74158076  0.98000616     0.00900
H1213       H  0.53898032  0.73655399  0.04326092     0.14700
H1214       H  0.58641699  0.73604362  0.04202025     0.14800
O1215       O  0.82482335  0.72523237  0.96831557    -0.79000
O1216       O  0.83084044  0.73833733  0.79003632    -0.63700
O1217       O  0.83526854  0.74778272  0.89668938    -1.10300
C1218       C  0.75208312  0.76276192  0.88859982     1.07900
O1219       O  0.81022007  0.77179075  0.78401288    -0.76900
O1220       O  0.79400749  0.79814836  0.84240142    -0.64500
Ni1221     Ni  0.84954323  0.72447160  0.92930644     1.34900
C1222       C  0.80254066  0.80289401  0.87445287     0.86700
O1223       O  0.86773254  0.73759720  0.83737693    -0.77400
O1224       O  0.87619906  0.72197580  0.89492817    -0.87700
C1225       C  0.82097386  0.75415014  0.76939801     0.86200
O1226       O  0.83504854  0.69716689  0.90870118    -0.65900
O1227       O  0.75600340  0.76770372  0.85329386    -0.85200
C1228       C  0.82973467  0.69201341  0.87497243     0.87100
C1229       C  0.88215148  0.72837203  0.86100615     1.08600
H1230       H  0.79231320  0.73154401  0.84923789     0.40400
O1231       O  0.80034934  0.74662986  0.85163031    -1.07800
O1232       O  0.80680951  0.78678409  0.89927708    -0.64500
Ni1233     Ni  0.80195582  0.75286393  0.90424761     1.26300
O1234       O  0.82960042  0.70758996  0.84788426    -0.64700
O1235       O  0.76852826  0.75704050  0.91116712    -0.77000
C1236       C  0.81305781  0.74323702  0.97929981     0.86400
O1237       O  0.80472532  0.75830596  0.95626403    -0.64200
Ni1238     Ni  0.78395085  0.76915850  0.82010299     1.27400
Ni1239     Ni  0.83393350  0.74198410  0.84345573     1.26100
H1240       H  0.84372387  0.76255840  0.89977863     0.41000
O1241       O  0.79531565  0.76553021  0.52890020    -0.79000
O1242       O  0.80619198  0.76297853  0.70852560    -0.63700
O1243       O  0.81581755  0.76772845  0.60084947    -1.10300
C1244       C  0.81733247  0.68295491  0.61489441     1.07900
O1245       O  0.83677455  0.73834773  0.71240425    -0.76900
O1246       O  0.85842185  0.71639157  0.65301603    -0.64500
Ni1247     Ni  0.79404153  0.78637231  0.57159572     1.34900
C1248       C  0.86466794  0.72488552  0.62044456     0.86700
O1249       O  0.81157486  0.79945862  0.66001361    -0.77400
O1250       O  0.79077424  0.81056763  0.60937357    -0.87700
C1251       C  0.82145602  0.75187715  0.72809715     0.86200
O1252       O  0.76652640  0.77017218  0.59153303    -0.65900
O1253       O  0.82125998  0.68594262  0.65003392    -0.85200
C1254       C  0.76018448  0.76697190  0.62629534     0.87100
C1255       C  0.79995182  0.81483263  0.64121727     1.08600
H1256       H  0.79293951  0.72720204  0.65207653     0.40400
O1257       O  0.80918109  0.73269920  0.64804063    -1.07800
O1258       O  0.84980257  0.73348738  0.59721868    -0.64500
Ni1259     Ni  0.81555639  0.73389020  0.59482623     1.26300
O1260       O  0.77518341  0.76737270  0.65310622    -0.64700
O1261       O  0.81514014  0.70006953  0.59072581    -0.77000
C1262       C  0.80913774  0.74880614  0.51839713     0.86400
O1263       O  0.82091386  0.73612844  0.54141617    -0.64200
Ni1264     Ni  0.82844088  0.71290475  0.67972208     1.27400
Ni1265     Ni  0.81008836  0.76610035  0.65469633     1.26100
H1266       H  0.83158224  0.77390153  0.59576922     0.41000
N1267       N  0.79752765  0.49808281  0.54410023    -0.01600
C1268       C  0.79459042  0.51781842  0.52202508     0.01000
C1269       C  0.78946789  0.51191029  0.48514890    -0.21900
C1270       C  0.78950296  0.48740048  0.48446505    -0.22100
C1271       C  0.79453814  0.47951942  0.52093114     0.00900
H1272       H  0.78660477  0.52402741  0.46129623     0.14700
H1273       H  0.78610603  0.47648321  0.46022923     0.14800
N1274       N  0.81887908  0.49649145  0.82734918    -0.01600
C1275       C  0.82425767  0.51466560  0.85072330     0.01000
C1276       C  0.82813514  0.50594372  0.88716503    -0.21900
C1277       C  0.82504117  0.48178939  0.88642916    -0.22100
C1278       C  0.81917066  0.47638498  0.84970735     0.00900
H1279       H  0.83230498  0.51616881  0.91188954     0.14700
H1280       H  0.82665014  0.46938898  0.91024353     0.14800
N1281       N  0.80541060  0.99789567  0.93000120    -0.01600
C1282       C  0.80855101  0.97896785  0.90686059     0.01000
C1283       C  0.81380986  0.98669647  0.86988480    -0.21900
C1284       C  0.81397014  0.01114792  0.87009864    -0.22100
C1285       C  0.80880891  0.01753367  0.90718777     0.00900
H1286       H  0.81682317  0.97567997  0.84527844     0.14700
H1287       H  0.81675971  0.02301541  0.84564518     0.14800
N1288       N  0.77471801  0.99431179  0.72599763    -0.01600
C1289       C  0.76985218  0.97517356  0.74900815     0.01000
C1290       C  0.76550835  0.98176949  0.78622207    -0.21900
C1291       C  0.76745715  0.00612105  0.78627848    -0.22100
C1292       C  0.77317492  0.01328608  0.74913792     0.00900
H1293       H  0.76180746  0.97011515  0.81065868     0.14700
H1294       H  0.76554805  0.01733593  0.81087862     0.14800
O1295       O  0.79702541  0.22628143  0.79018423    -0.79000
O1296       O  0.79332124  0.23703726  0.96491620    -0.63700
O1297       O  0.78951029  0.24977940  0.85896205    -1.10300
C1298       C  0.87342537  0.25765276  0.86774034     1.07900
O1299       O  0.81530498  0.26921230  0.97106465    -0.76900
O1300       O  0.83191178  0.29530958  0.91163625    -0.64500
Ni1301     Ni  0.77157831  0.22949266  0.82763263     1.34900
C1302       C  0.82484622  0.30084089  0.87860831     0.86700
O1303       O  0.75693584  0.24096859  0.91937448    -0.77400
O1304       O  0.74420811  0.23093773  0.86179262    -0.87700
C1305       C  0.80332328  0.25197670  0.98550561     0.86200
O1306       O  0.78078986  0.19971777  0.84962184    -0.65900
O1307       O  0.86903843  0.26371175  0.90202886    -0.85200
C1308       C  0.78781140  0.19352670  0.88239572     0.87100
C1309       C  0.74062170  0.23512714  0.89705987     1.08600
H1310       H  0.83113258  0.22905225  0.90765608     0.40400
O1311       O  0.82420029  0.24468062  0.90399846    -1.07800
O1312       O  0.82173139  0.28534729  0.85346883    -0.64500
Ni1313     Ni  0.82339010  0.25115829  0.85092640     1.26300
O1314       O  0.79215417  0.20854932  0.90789769    -0.64700
O1315       O  0.85724620  0.25200685  0.84489857    -0.77000
C1316       C  0.81096495  0.24237930  0.77674738     0.86400
O1317       O  0.82143366  0.25660561  0.79789418    -0.64200
Ni1318     Ni  0.84132476  0.26588339  0.93498832     1.27400
Ni1319     Ni  0.79056583  0.24273864  0.91209536     1.26100
H1320       H  0.78284881  0.26556544  0.85593770     0.41000
O1321       O  0.83071276  0.25780349  0.72101075    -0.79000
O1322       O  0.81916423  0.25685991  0.54732538    -0.63700
O1323       O  0.80596324  0.26312320  0.65280022    -1.10300
C1324       C  0.79381074  0.18093112  0.65302971     1.07900
O1325       O  0.78864728  0.23227134  0.53938673    -0.76900
O1326       O  0.76017145  0.22639737  0.60195020    -0.64500
Ni1327     Ni  0.82535713  0.28258030  0.68331067     1.34900
C1328       C  0.75483251  0.23062691  0.63650183     0.86700
O1329       O  0.81475036  0.29427162  0.59146362    -0.77400
O1330       O  0.82044430  0.30912880  0.64928683    -0.87700
C1331       C  0.80486183  0.24622348  0.52630403     0.86200
O1332       O  0.85592993  0.27630752  0.65957964    -0.65900
O1333       O  0.78490026  0.18537084  0.62063174    -0.85200
C1334       C  0.86273285  0.26702256  0.62836580     0.87100
C1335       C  0.81667569  0.31167111  0.61378012     1.08600
H1336       H  0.82641707  0.21966158  0.60542417     0.40400
O1337       O  0.81098533  0.22719838  0.60971000    -1.07800
O1338       O  0.77041993  0.23031273  0.66213708    -0.64500
Ni1339     Ni  0.80503546  0.22975610  0.66295412     1.26300
O1340       O  0.84791269  0.25922898  0.60466122    -0.64700
O1341       O  0.80473922  0.19640493  0.67161868    -0.77000
C1342       C  0.81431029  0.24463869  0.73572785     0.86400
O1343       O  0.80006269  0.23357063  0.71547886    -0.64200
Ni1344     Ni  0.78770499  0.21024320  0.58202791     1.27400
Ni1345     Ni  0.81340629  0.26068671  0.60005290     1.26100
H1346       H  0.79001300  0.26943602  0.65516032     0.41000
N1347       N  0.55834677  0.24496151  0.68746763    -0.01600
C1348       C  0.54096784  0.25309524  0.66399977     0.01000
C1349       C  0.55060302  0.25912728  0.62839047    -0.21900
C1350       C  0.57453193  0.25458155  0.62949600    -0.22100
C1351       C  0.57891788  0.24599019  0.66576693     0.00900
H1352       H  0.54104447  0.26541192  0.60375596     0.14700
H1353       H  0.58745618  0.25721446  0.60626355     0.14800
N1354       N  0.55462568  0.20746864  0.96897275    -0.01600
C1355       C  0.57337063  0.20447962  0.99210564     0.01000
C1356       C  0.56540687  0.19973745  0.02924234    -0.21900
C1357       C  0.54086400  0.19984726  0.02892133    -0.22100
C1358       C  0.53487238  0.20481466  0.99169349     0.00900
H1359       H  0.57623897  0.19693874  0.05397884     0.14700
H1360       H  0.52877491  0.19757128  0.05334134     0.14800
N1361       N  0.31598531  0.00486493  0.94255456    -0.01600
C1362       C  0.31715191  0.98568087  0.91939195     0.01000
C1363       C  0.31427154  0.99261630  0.88182075    -0.21900
C1364       C  0.31115002  0.01679515  0.88138647    -0.22100
C1365       C  0.31231455  0.02399280  0.91868663     0.00900
H1366       H  0.31443087  0.98122612  0.85733495     0.14700
H1367       H  0.30890984  0.02810615  0.85635436     0.14800
N1368       N  0.33843620  0.00632410  0.72149075    -0.01600
C1369       C  0.33862286  0.02575251  0.74365342     0.01000
C1370       C  0.34358270  0.01936229  0.78089144    -0.21900
C1371       C  0.34626668  0.99503195  0.78181397    -0.22100
C1372       C  0.34305256  0.98759092  0.74506026     0.00900
H1373       H  0.34456510  0.03104188  0.80490987     0.14700
H1374       H  0.34973889  0.98392130  0.80664394     0.14800
N1375       N  0.05794292  0.29327009  0.79763127    -0.01600
C1376       C  0.03877779  0.29402815  0.77514347     0.01000
C1377       C  0.04538101  0.30049013  0.73814001    -0.21900
C1378       C  0.06973586  0.30343099  0.73766131    -0.22100
C1379       C  0.07697626  0.29882074  0.77448906     0.00900
H1380       H  0.03396803  0.30161160  0.71381767     0.14700
H1381       H  0.08104343  0.30750523  0.71285038     0.14800
N1382       N  0.06137660  0.26272703  0.57499339    -0.01600
C1383       C  0.08122910  0.26299193  0.59670462     0.01000
C1384       C  0.07496546  0.25941924  0.63475667    -0.21900
C1385       C  0.05067602  0.25665043  0.63693699    -0.22100
C1386       C  0.04261994  0.25873134  0.60017085     0.00900
H1387       H  0.08688008  0.25899555  0.65848758     0.14700
H1388       H  0.03989957  0.25398899  0.66277795     0.14800
O1389       O  0.29655802  0.27653289  0.96673400    -0.79000
O1390       O  0.29855080  0.26836057  0.79288573    -0.63700
O1391       O  0.29001274  0.25359136  0.89762392    -1.10300
C1392       C  0.37271888  0.23864811  0.89198170     1.07900
O1393       O  0.32085198  0.23632273  0.78247252    -0.76900
O1394       O  0.32988954  0.20648362  0.84226865    -0.64500
Ni1395     Ni  0.27207024  0.27456645  0.92978171     1.34900
C1396       C  0.32367877  0.20065317  0.87628717     0.86700
O1397       O  0.26024467  0.26538166  0.83787641    -0.77400
O1398       O  0.24571491  0.27395005  0.89634492    -0.87700
C1399       C  0.30860556  0.25392960  0.77061494     0.86200
O1400       O  0.28241024  0.30450955  0.90809369    -0.65900
O1401       O  0.36924309  0.23274244  0.85771629    -0.85200
C1402       C  0.29153269  0.31067158  0.87584161     0.87100
C1403       C  0.24318505  0.27058022  0.86090920     1.08600
H1404       H  0.33491961  0.27266583  0.85024663     0.40400
O1405       O  0.32683966  0.25742933  0.85324390    -1.07800
O1406       O  0.32105388  0.21601937  0.90217628    -0.64500
Ni1407     Ni  0.32328851  0.25025028  0.90604071     1.26300
O1408       O  0.29700107  0.29555694  0.85059622    -0.64700
O1409       O  0.35658963  0.24759674  0.91341653    -0.77000
C1410       C  0.30873598  0.25926337  0.97974599     0.86400
O1411       O  0.31847272  0.24418928  0.95835680    -0.64200
Ni1412     Ni  0.34392458  0.23530410  0.82205946     1.27400
Ni1413     Ni  0.29360447  0.26160798  0.84506566     1.26100
H1414       H  0.28252798  0.23823311  0.89986539     0.41000
O1415       O  0.33299600  0.24681796  0.53284950    -0.79000
O1416       O  0.32063053  0.24731324  0.70791721    -0.63700
O1417       O  0.30870830  0.24133078  0.60358619    -1.10300
C1418       C  0.29961574  0.32476714  0.60688226     1.07900
O1419       O  0.28966434  0.27124204  0.71792992    -0.76900
O1420       O  0.26238778  0.28310990  0.65773226    -0.64500
Ni1421     Ni  0.32965500  0.22255802  0.57228645     1.34900
C1422       C  0.25736774  0.27642538  0.62453001     0.86700
O1423       O  0.31567501  0.21010878  0.66475416    -0.77400
O1424       O  0.32728397  0.19607576  0.60794688    -0.87700
C1425       C  0.30614275  0.25770066  0.73003126     0.86200
O1426       O  0.35952345  0.23231401  0.59205948    -0.65900
O1427       O  0.29236742  0.32141017  0.64137368    -0.85200
C1428       C  0.36497346  0.24017520  0.62430397     0.87100
C1429       C  0.32110124  0.19303181  0.64299144     1.08600
H1430       H  0.32919330  0.28407583  0.64924906     0.40400
O1431       O  0.31357684  0.27714091  0.64666130    -1.07800
O1432       O  0.27333780  0.27387700  0.59854173    -0.64500
Ni1433     Ni  0.30765847  0.27483339  0.59399175     1.26300
O1434       O  0.34933369  0.24474334  0.65007617    -0.64700
O1435       O  0.30713355  0.30825417  0.58554326    -0.77000
C1436       C  0.31652237  0.26009820  0.52014185     0.86400
O1437       O  0.30248566  0.27130196  0.54190184    -0.64200
Ni1438     Ni  0.29154918  0.29507700  0.67752415     1.27400
Ni1439     Ni  0.31506065  0.24364898  0.65603729     1.26100
H1440       H  0.29289002  0.23471222  0.60159545     0.41000
C1441       C  0.14345322  0.28729406  0.59847180     0.14600
C1442       C  0.15715039  0.26754484  0.58719943     0.01500
C1443       C  0.14548567  0.24815921  0.57095749     0.16500
C1444       C  0.12034533  0.24769089  0.56962006     0.25900
C1445       C  0.10663277  0.26662312  0.58429103    -0.40400
C1446       C  0.11854125  0.28677185  0.59729145     0.33000
C1447       C  0.18301411  0.26674474  0.59638633     0.01600
F1448       F  0.15822962  0.22895536  0.55919550    -0.12700
F1449       F  0.10586304  0.30533229  0.61160556    -0.13200
C1450       C  0.18974143  0.26827468  0.63458956     0.16500
C1451       C  0.21374667  0.27087493  0.64386663     0.25900
C1452       C  0.23184901  0.27183048  0.61507434    -0.40300
C1453       C  0.22510138  0.26898073  0.57681685     0.32900
C1454       C  0.20098767  0.26643014  0.56767833     0.14600
F1455       F  0.17284289  0.26756430  0.66312109    -0.12700
F1456       F  0.24169705  0.26949691  0.54783553    -0.13200
F1457       F  0.21910820  0.27269046  0.68116945    -0.15500
F1458       F  0.19516305  0.26466215  0.53057332    -0.14100
F1459       F  0.15423572  0.30663887  0.61284553    -0.14100
F1460       F  0.10936236  0.22790089  0.55722942    -0.15500
C1461       C  0.13397391  0.30416433  0.82841120     0.14600
C1462       C  0.14902426  0.28882887  0.80763812     0.01500
C1463       C  0.14073791  0.27797337  0.77499483     0.16500
C1464       C  0.11742357  0.28185607  0.76374901     0.25900
C1465       C  0.10208206  0.29663511  0.78506667    -0.40400
C1466       C  0.11062001  0.30817813  0.81703193     0.33000
C1467       C  0.17316382  0.28350587  0.82057957     0.01600
F1468       F  0.15497003  0.26286950  0.75490085    -0.12700
F1469       F  0.09644312  0.32337568  0.83701696    -0.13200
C1470       C  0.17620803  0.27183327  0.85585495     0.16500
C1471       C  0.19906882  0.26694060  0.86847419     0.25900
C1472       C  0.21918379  0.27357491  0.84585835    -0.40300
C1473       C  0.21608016  0.28459890  0.80993140     0.32900
C1474       C  0.19316924  0.28960709  0.79745376     0.14600
F1475       F  0.15699525  0.26498654  0.87787425    -0.12700
F1476       F  0.23518430  0.29149711  0.78769096    -0.13200
F1477       F  0.20156559  0.25552906  0.90266262    -0.15500
F1478       F  0.19047784  0.30100858  0.76330156    -0.14100
F1479       F  0.14196064  0.31521696  0.85961134    -0.14100
F1480       F  0.10949267  0.27028229  0.73301068    -0.15500
C1481       C  0.07162739  0.28805428  0.47547414     0.14600
C1482       C  0.05867841  0.27216346  0.45359089     0.01500
C1483       C  0.04684091  0.25293002  0.47223394     0.16500
C1484       C  0.04786410  0.24973567  0.51196454     0.25900
C1485       C  0.06045236  0.26590871  0.53397720    -0.40400
C1486       C  0.07223184  0.28516063  0.51522144     0.33000
C1487       C  0.05693770  0.27797305  0.91748630     0.01600
F1488       F  0.03400954  0.23739596  0.45198329    -0.12700
F1489       F  0.08376796  0.30164812  0.53545151    -0.13200
C1490       C  0.07020715  0.26354829  0.89235191     0.16500
C1491       C  0.07056300  0.26849566  0.85297102     0.25900
C1492       C  0.05762519  0.28789853  0.83813419    -0.40300
C1493       C  0.04380800  0.30185216  0.86322614     0.32900
C1494       C  0.04349064  0.29695689  0.90251991     0.14600
F1495       F  0.08310816  0.24491971  0.90602945    -0.12700
F1496       F  0.03093450  0.32051482  0.84961421    -0.13200
F1497       F  0.08312873  0.25409420  0.82918936    -0.15500
F1498       F  0.02994611  0.31069031  0.92608194    -0.14100
F1499       F  0.08391451  0.30633015  0.45822770    -0.14100
F1500       F  0.03693211  0.23053997  0.52884256    -0.15500
C1501       C  0.30944600  0.07900562  0.69646807     0.14600
C1502       C  0.32549233  0.09719431  0.70494077     0.01500
C1503       C  0.34531225  0.09189013  0.72720851     0.16500
C1504       C  0.34943993  0.06859034  0.73984268     0.25900
C1505       C  0.33371418  0.05031609  0.73069371    -0.40400
C1506       C  0.31333508  0.05575193  0.70977131     0.33000
C1507       C  0.32221881  0.12153613  0.68940648     0.01600
F1508       F  0.36113509  0.10914580  0.73560995    -0.12700
F1509       F  0.29687121  0.03876472  0.70311787    -0.13200
C1510       C  0.32054482  0.14090755  0.71389092     0.16500
C1511       C  0.31965369  0.16416163  0.69902349     0.25900
C1512       C  0.32039082  0.16840532  0.65917009    -0.40300
C1513       C  0.32086819  0.14873550  0.63483649     0.32900
C1514       C  0.32199199  0.12557364  0.64985070     0.14600
F1515       F  0.32000959  0.13724725  0.75228353    -0.12700
F1516       F  0.32032650  0.15178934  0.59638115    -0.13200
F1517       F  0.31864657  0.18241521  0.72377838    -0.15500
F1518       F  0.32373094  0.10707956  0.62562682    -0.14100
F1519       F  0.28991354  0.08384697  0.67564068    -0.14100
F1520       F  0.36923274  0.06372368  0.76003028    -0.15500
C1521       C  0.29430090  0.08822567  0.91237844     0.14600
C1522       C  0.31621063  0.09968058  0.91697871     0.01500
C1523       C  0.33586287  0.08616537  0.92918069     0.16500
C1524       C  0.33388369  0.06131423  0.93457090     0.25900
C1525       C  0.31228538  0.04969337  0.92762359    -0.40400
C1526       C  0.29237371  0.06349889  0.91750416     0.33000
C1527       C  0.31858798  0.12543034  0.90672396     0.01600
F1528       F  0.35734088  0.09678760  0.93327899    -0.12700
F1529       F  0.27144733  0.05273372  0.90978332    -0.13200
C1530       C  0.31891420  0.14256947  0.93513678     0.16500
C1531       C  0.31966935  0.16695397  0.92539685     0.25900
C1532       C  0.32052414  0.17478125  0.88674038    -0.40300
C1533       C  0.32019054  0.15735058  0.85833352     0.32900
C1534       C  0.31915981  0.13301426  0.86826687     0.14600
F1535       F  0.31829511  0.13565012  0.97246678    -0.12700
F1536       F  0.32082277  0.16376510  0.82079380    -0.13200
F1537       F  0.31999037  0.18280073  0.95403548    -0.15500
F1538       F  0.31890846  0.11674924  0.84021113    -0.14100
F1539       F  0.27503699  0.10092259  0.90100214    -0.14100
F1540       F  0.35359424  0.04837237  0.94299758    -0.15500
C1541       C  0.31095992  0.99417922  0.62728864     0.14600
C1542       C  0.32670986  0.00632178  0.60164401     0.01500
C1543       C  0.34646552  0.01820993  0.61607545     0.16500
C1544       C  0.35033469  0.01805014  0.65535946     0.25900
C1545       C  0.33468816  0.00582941  0.68093068    -0.40400
C1546       C  0.31503218  0.99377552  0.66655832     0.33000
C1547       C  0.32146914  0.00340835  0.06437815     0.01600
F1548       F  0.36178466  0.03034686  0.59211286    -0.12700
F1549       F  0.29938123  0.98227445  0.69074304    -0.13200
C1550       C  0.30241521  0.01535666  0.04691460     0.16500
C1551       C  0.30058540  0.01582316  0.00699701     0.25900
C1552       C  0.31793013  0.00462797  0.98367619    -0.40300
C1553       C  0.33682193  0.99251008  0.00126586     0.32900
C1554       C  0.33838229  0.99164218  0.04108445     0.14600
F1555       F  0.28584600  0.02701909  0.06846927    -0.12700
F1556       F  0.35425601  0.98206721  0.97984467    -0.13200
F1557       F  0.28161553  0.02685138  0.99114432    -0.15500
F1558       F  0.35651586  0.97924587  0.05700934    -0.14100
F1559       F  0.29172165  0.98256556  0.61422658    -0.14100
F1560       F  0.36949807  0.02968001  0.66857696    -0.15500
C1561       C  0.47007756  0.19616459  0.97025841     0.14600
C1562       C  0.46497430  0.21793761  0.95178391     0.01500
C1563       C  0.48255674  0.23557458  0.94770069     0.16500
C1564       C  0.50515501  0.23148932  0.96175966     0.25900
C1565       C  0.51053681  0.20951749  0.97935526    -0.40400
C1566       C  0.49283553  0.19198513  0.98412365     0.33000
C1567       C  0.44129971  0.22259425  0.93675140     0.01600
F1568       F  0.47768819  0.25682692  0.93035817    -0.12700
F1569       F  0.49784003  0.17065825  0.00110075    -0.13200
C1570       C  0.42184035  0.22646794  0.96175351     0.16500
C1571       C  0.39955696  0.23226656  0.94742185     0.25900
C1572       C  0.39652222  0.23418389  0.90765561    -0.40300
C1573       C  0.41636593  0.23059676  0.88282115     0.32900
C1574       C  0.43851318  0.22472411  0.89732094     0.14600
F1575       F  0.42460283  0.22499724  0.00004528    -0.12700
F1576       F  0.41450438  0.23308193  0.84444353    -0.13200
F1577       F  0.38100163  0.23560751  0.97249987    -0.15500
F1578       F  0.45732502  0.22108683  0.87286258    -0.14100
F1579       F  0.45323158  0.17885447  0.97392875    -0.14100
F1580       F  0.52166800  0.24913514  0.95877627    -0.15500
C1581       C  0.43248367  0.24814688  0.61203644     0.14600
C1582       C  0.43962762  0.24756139  0.65013744     0.01500
C1583       C  0.42223382  0.24544675  0.67947063     0.16500
C1584       C  0.39804243  0.24370459  0.67108265     0.25900
C1585       C  0.39068198  0.24358595  0.63290805    -0.40400
C1586       C  0.40827919  0.24601477  0.60343625     0.33000
C1587       C  0.46519399  0.24957982  0.65941225     0.01600
F1588       F  0.42873105  0.24524147  0.71643595    -0.12700
F1589       F  0.40210316  0.24665792  0.56629168    -0.13200
C1590       C  0.47697905  0.27148890  0.65445603     0.16500
C1591       C  0.50147631  0.27313718  0.66045385     0.25900
C1592       C  0.51474464  0.25281909  0.67095847    -0.40300
C1593       C  0.50269136  0.23117844  0.67813394     0.32900
C1594       C  0.47802651  0.22960862  0.67258673     0.14600
F1595       F  0.46486222  0.29113054  0.64260055    -0.12700
F1596       F  0.51507866  0.21114800  0.68720894    -0.13200
F1597       F  0.51260594  0.29436408  0.65387909    -0.15500
F1598       F  0.46691800  0.20827553  0.67786100    -0.14100
F1599       F  0.44901390  0.25054158  0.58313138    -0.14100
F1600       F  0.38190549  0.24161870  0.70056205    -0.15500
C1601       C  0.54324430  0.24818096  0.79257547     0.14600
C1602       C  0.55435699  0.22752108  0.80697834     0.01500
C1603       C  0.56568227  0.21200695  0.78120197     0.16500
C1604       C  0.56635517  0.21733346  0.74191590     0.25900
C1605       C  0.55597046  0.23843505  0.72757933    -0.40400
C1606       C  0.54411280  0.25362827  0.75333310     0.33000
C1607       C  0.55446574  0.22236043  0.84884157     0.01600
F1608       F  0.57662094  0.19194481  0.79420367    -0.12700
F1609       F  0.53409411  0.27423125  0.74066309    -0.13200
C1610       C  0.54389269  0.20145900  0.86434435     0.16500
C1611       C  0.54408970  0.19661157  0.90369372     0.25900
C1612       C  0.55504554  0.21241592  0.92830346    -0.40300
C1613       C  0.56562121  0.23331023  0.91290091     0.32900
C1614       C  0.56526244  0.23828627  0.87354860     0.14600
F1615       F  0.53301649  0.18592017  0.84140557    -0.12700
F1616       F  0.57567890  0.24918917  0.93617537    -0.13200
F1617       F  0.53381511  0.17629332  0.91790707    -0.15500
F1618       F  0.57566387  0.25858038  0.85946099    -0.14100
F1619       F  0.53154328  0.26312640  0.81661859    -0.14100
F1620       F  0.57695488  0.20171316  0.71781087    -0.15500
C1621       C  0.68903588  0.24688950  0.63045332     0.14600
C1622       C  0.67997663  0.23907508  0.66636614     0.01500
C1623       C  0.69581494  0.23012953  0.69337663     0.16500
C1624       C  0.72026752  0.22813193  0.68416647     0.25900
C1625       C  0.72935106  0.23510602  0.64762934    -0.40400
C1626       C  0.71344525  0.24494297  0.62114119     0.33000
C1627       C  0.65378608  0.23804596  0.67379002     0.01600
F1628       F  0.68739398  0.22222832  0.72804450    -0.12700
F1629       F  0.72145648  0.25248097  0.58602639    -0.13200
C1630       C  0.64037565  0.22080649  0.65557532     0.16500
C1631       C  0.61545779  0.22171184  0.65709644     0.25900
C1632       C  0.60345661  0.23984174  0.67695198    -0.40300
C1633       C  0.61676992  0.25587908  0.69796224     0.32900
C1634       C  0.64186356  0.25500680  0.69637037     0.14600
F1635       F  0.65150448  0.20386473  0.63448782    -0.12700
F1636       F  0.60556267  0.27365021  0.71707147    -0.13200
F1637       F  0.60297991  0.20596600  0.63666915    -0.15500
F1638       F  0.65447508  0.27169153  0.71459364    -0.14100
F1639       F  0.67406148  0.25591728  0.60402402    -0.14100
F1640       F  0.73478250  0.21804158  0.71029799    -0.15500
C1641       C  0.97951428  0.28073801  0.58426306     0.14600
C1642       C  0.96585643  0.26082467  0.59671013     0.01500
C1643       C  0.97782918  0.23947327  0.60566027     0.16500
C1644       C  0.00288080  0.23840014  0.60398015     0.25900
C1645       C  0.01658350  0.25846156  0.59244861    -0.40400
C1646       C  0.00462241  0.27954182  0.58201546     0.33000
C1647       C  0.93942647  0.26284726  0.60356228     0.01600
F1648       F  0.96530644  0.22005796  0.61840927    -0.12700
F1649       F  0.01728047  0.29950943  0.57259229    -0.13200
C1650       C  0.92328030  0.24992768  0.58208790     0.16500
C1651       C  0.89848172  0.25145465  0.58956201     0.25900
C1652       C  0.88917367  0.26560185  0.61936992    -0.40300
C1653       C  0.90557525  0.27881788  0.64039180     0.32900
C1654       C  0.93025349  0.27740506  0.63257458     0.14600
F1655       F  0.93154666  0.23595526  0.55351420    -0.12700
F1656       F  0.89783874  0.29352818  0.66836346    -0.13200
F1657       F  0.88366031  0.23891857  0.56762734    -0.15500
F1658       F  0.94533152  0.29002314  0.65398993    -0.14100
F1659       F  0.96851450  0.30164125  0.57562343    -0.14100
F1660       F  0.01389261  0.21803593  0.61556258    -0.15500
C1661       C  0.68992273  0.21541066  0.96309059     0.14600
C1662       C  0.67014291  0.22183650  0.94154463     0.01500
C1663       C  0.67352797  0.23378957  0.90625675     0.16500
C1664       C  0.69652529  0.23872331  0.89209494     0.25900
C1665       C  0.71638887  0.23196424  0.91327877    -0.40400
C1666       C  0.71293686  0.22054351  0.94914670     0.33000
C1667       C  0.64588905  0.21612962  0.95576249     0.01600
F1668       F  0.65450289  0.24077780  0.88567860    -0.12700
F1669       F  0.73184562  0.21333198  0.96984824    -0.13200
C1670       C  0.63687696  0.22648493  0.98920061     0.16500
C1671       C  0.61334572  0.22229032  0.00138047     0.25900
C1672       C  0.59862833  0.20750328  0.98039306    -0.40300
C1673       C  0.60805743  0.19624692  0.94791462     0.32900
C1674       C  0.63146625  0.20080616  0.93537445     0.14600
F1675       F  0.65061222  0.24137666  0.00918658    -0.12700
F1676       F  0.59477626  0.18059435  0.92865630    -0.13200
F1677       F  0.60467282  0.23346025  0.03279481    -0.15500
F1678       F  0.64013595  0.19021995  0.90341434    -0.14100
F1679       F  0.68693193  0.20350218  0.99701445    -0.14100
F1680       F  0.69940744  0.25028700  0.85787784    -0.15500
C1681       C  0.98898885  0.25524870  0.81534078     0.14600
C1682       C  0.96939563  0.27048601  0.81116287     0.01500
C1683       C  0.97246094  0.29316512  0.79414776     0.16500
C1684       C  0.99512047  0.30079338  0.78203828     0.25900
C1685       C  0.01484144  0.28578395  0.78693614    -0.40400
C1686       C  0.01163923  0.26279509  0.80294613     0.33000
C1687       C  0.94576945  0.26344509  0.82607276     0.01600
F1688       F  0.95355198  0.30809024  0.79029113    -0.12700
F1689       F  0.03034545  0.24754545  0.80588913    -0.13200
C1690       C  0.94061372  0.26459778  0.86521709     0.16500
C1691       C  0.91724625  0.26167455  0.87908060     0.25900
C1692       C  0.89859035  0.25778044  0.85371098    -0.40300
C1693       C  0.90428751  0.25522101  0.81453826     0.32900
C1694       C  0.92773974  0.25807513  0.80093752     0.14600
F1695       F  0.95806020  0.26977874  0.88977317    -0.12700
F1696       F  0.88716094  0.25095095  0.78899640    -0.13200
F1697       F  0.91294871  0.26337156  0.91721616    -0.15500
F1698       F  0.93278497  0.25643638  0.76300023    -0.14100
F1699       F  0.98610407  0.23313395  0.83125280    -0.14100
F1700       F  0.99795508  0.32305153  0.76665697    -0.15500
C1701       C  0.76408929  0.07916312  0.73594019     0.14600
C1702       C  0.78455220  0.08560866  0.71428996     0.01500
C1703       C  0.80202883  0.06847023  0.70567562     0.16500
C1704       C  0.79854359  0.04479318  0.71736553     0.25900
C1705       C  0.77748645  0.03815845  0.73749039    -0.40400
C1706       C  0.76059610  0.05556616  0.74759560     0.33000
C1707       C  0.78694435  0.11002296  0.69917781     0.01600
F1708       F  0.82215176  0.07461044  0.68533836    -0.12700
F1709       F  0.74041457  0.04959543  0.76790983    -0.13200
C1710       C  0.80502954  0.12486791  0.71164234     0.16500
C1711       C  0.80708759  0.14813518  0.69717808     0.25900
C1712       C  0.79116619  0.15670677  0.66964491    -0.40300
C1713       C  0.77279370  0.14173263  0.65776755     0.32900
C1714       C  0.77073925  0.11858221  0.67247291     0.14600
F1715       F  0.82050227  0.11686341  0.73810864    -0.12700
F1716       F  0.75653826  0.14954139  0.63238439    -0.13200
F1717       F  0.82490015  0.16205121  0.70967374    -0.15500
F1718       F  0.75301750  0.10436863  0.66041346    -0.14100
F1719       F  0.74743970  0.09576379  0.74547036    -0.14100
F1720       F  0.81586621  0.02851052  0.70973301    -0.15500
C1721       C  0.77725095  0.07640910  0.91488648     0.14600
C1722       C  0.79665454  0.09218794  0.91695850     0.01500
C1723       C  0.81966631  0.08277884  0.92185959     0.16500
C1724       C  0.82343988  0.05813486  0.92186983     0.25900
C1725       C  0.80424419  0.04248201  0.91766792    -0.40400
C1726       C  0.78106209  0.05174238  0.91506152     0.33000
C1727       C  0.79348074  0.11814714  0.90939096     0.01600
F1728       F  0.83880040  0.09747921  0.92341097    -0.12700
F1729       F  0.76239191  0.03695539  0.90955723    -0.13200
C1730       C  0.80186607  0.13506619  0.93470069     0.16500
C1731       C  0.80054325  0.15948011  0.92573296     0.25900
C1732       C  0.79035094  0.16756381  0.89144775    -0.40300
C1733       C  0.78173272  0.15043166  0.86636556     0.32900
C1734       C  0.78347256  0.12610648  0.87513137     0.14600
F1735       F  0.81128717  0.12793763  0.96829004    -0.12700
F1736       F  0.77148222  0.15704111  0.83316181    -0.13200
F1737       F  0.80948208  0.17510625  0.95059524    -0.15500
F1738       F  0.77592733  0.11024517  0.84942566    -0.14100
F1739       F  0.75476273  0.08492940  0.91078888    -0.14100
F1740       F  0.84609107  0.04966309  0.92316273    -0.15500
C1741       C  0.81584866  0.00876433  0.03314635     0.14600
C1742       C  0.79488746  0.99969155  0.05107862     0.01500
C1743       C  0.77723470  0.98991175  0.02820879     0.16500
C1744       C  0.78066864  0.98909526  0.98837976     0.25900
C1745       C  0.80187589  0.99774393  0.97087957    -0.40400
C1746       C  0.81942553  0.00742230  0.99364604     0.33000
C1747       C  0.79101509  0.99269746  0.60560875     0.01600
F1748       F  0.75687983  0.98075916  0.04446906    -0.12700
F1749       F  0.84033587  0.01520609  0.97752180    -0.13200
C1750       C  0.77187899  0.00650882  0.61998675     0.16500
C1751       C  0.76655014  0.00702758  0.65935398     0.25900
C1752       C  0.78046766  0.99412056  0.68536273    -0.40300
C1753       C  0.79971657  0.98048844  0.67104541     0.32900
C1754       C  0.80464557  0.97942135  0.63167399     0.14600
F1755       F  0.75854002  0.01986670  0.59590567    -0.12700
F1756       F  0.81417335  0.96861417  0.69529158    -0.13200
F1757       F  0.74756441  0.01991854  0.67210308    -0.15500
F1758       F  0.82262496  0.96514052  0.61899284    -0.14100
F1759       F  0.83285200  0.01918292  0.05390615    -0.14100
F1760       F  0.76320447  0.98021540  0.96683703    -0.15500
C1761       C  0.79462440  0.41482060  0.86249703     0.14600
C1762       C  0.81139082  0.40145089  0.84150986     0.01500
C1763       C  0.82749424  0.41345445  0.81617816     0.16500
C1764       C  0.82839918  0.43851319  0.81503512     0.25900
C1765       C  0.81320562  0.45171098  0.83921967    -0.40400
C1766       C  0.79557357  0.43965955  0.86143289     0.33000
C1767       C  0.81407433  0.37556944  0.85040166     0.01600
F1768       F  0.84374269  0.40096369  0.79523206    -0.12700
F1769       F  0.78052697  0.45199417  0.88476922    -0.13200
C1770       C  0.81187740  0.35836228  0.82230665     0.16500
C1771       C  0.81493088  0.33407452  0.83138139     0.25900
C1772       C  0.82035068  0.32649898  0.86890605    -0.40300
C1773       C  0.82187599  0.34392443  0.89711010     0.32900
C1774       C  0.81899069  0.36806564  0.88785910     0.14600
F1775       F  0.80647515  0.36505371  0.78615596    -0.12700
F1776       F  0.82619165  0.33777307  0.93391913    -0.13200
F1777       F  0.81265581  0.31809184  0.80324580    -0.15500
F1778       F  0.82149154  0.38428109  0.91561604    -0.14100
F1779       F  0.77837774  0.40374317  0.88622932    -0.14100
F1780       F  0.84559437  0.44966189  0.79327008    -0.15500
C1781       C  0.81555596  0.37897779  0.60578318     0.14600
C1782       C  0.80619847  0.38256784  0.56958995     0.01500
C1783       C  0.80089638  0.36305566  0.54722556     0.16500
C1784       C  0.80463092  0.33994544  0.56121547     0.25900
C1785       C  0.81386108  0.33610299  0.59790753    -0.40400
C1786       C  0.81944410  0.35598264  0.61988595     0.33000
C1787       C  0.80214090  0.40687103  0.55535622     0.01600
F1788       F  0.79159514  0.36642437  0.51220393    -0.12700
F1789       F  0.82870431  0.35333837  0.65505762    -0.13200
C1790       C  0.81716959  0.41661304  0.52645711     0.16500
C1791       C  0.81448612  0.44036009  0.51499361     0.25900
C1792       C  0.79676240  0.45444550  0.53238487    -0.40300
C1793       C  0.78148473  0.44459420  0.56086417     0.32900
C1794       C  0.78416222  0.42084193  0.57230708     0.14600
F1795       F  0.83490670  0.40334052  0.51041673    -0.12700
F1796       F  0.76394616  0.45792163  0.57731352    -0.13200
F1797       F  0.82976474  0.44991705  0.48808987    -0.15500
F1798       F  0.76933529  0.41142701  0.59997118    -0.14100
F1799       F  0.82106762  0.39786384  0.62738222    -0.14100
F1800       F  0.79862875  0.32146025  0.53910622    -0.15500
C1801       C  0.82479544  0.48596701  0.63947492     0.14600
C1802       C  0.80804018  0.49682999  0.66441603     0.01500
C1803       C  0.78796216  0.50807143  0.64877180     0.16500
C1804       C  0.78445903  0.50806390  0.60949432     0.25900
C1805       C  0.80114896  0.49732086  0.58471585    -0.40400
C1806       C  0.82142560  0.48637026  0.59994951     0.33000
C1807       C  0.81114171  0.49648924  0.70660809     0.01600
F1808       F  0.77182482  0.51946178  0.67151875    -0.12700
F1809       F  0.83816046  0.47650591  0.57642565    -0.13200
C1810       C  0.83253657  0.50427591  0.72240797     0.16500
C1811       C  0.83488478  0.50466569  0.76209888     0.25900
C1812       C  0.81585866  0.49761866  0.78672068    -0.40300
C1813       C  0.79453059  0.48993927  0.77115394     0.32900
C1814       C  0.79226364  0.48907654  0.73156334     0.14600
F1815       F  0.85106036  0.51185152  0.69949746    -0.12700
F1816       F  0.77583778  0.48337951  0.79447100    -0.13200
F1817       F  0.85596998  0.51130672  0.77662735    -0.15500
F1818       F  0.77170139  0.48055946  0.71759771    -0.14100
F1819       F  0.84422725  0.47463580  0.65334005    -0.14100
F1820       F  0.76450412  0.51832927  0.59552903    -0.15500
C1821       C  0.81051327  0.63083814  0.54972485     0.14600
C1822       C  0.80935363  0.61174379  0.57598862     0.01500
C1823       C  0.81197192  0.61568178  0.61487809     0.16500
C1824       C  0.81472966  0.63879352  0.62770684     0.25900
C1825       C  0.81520768  0.65830601  0.60150842    -0.40400
C1826       C  0.81370751  0.65391588  0.56221235     0.33000
C1827       C  0.80546543  0.58766064  0.56250077     0.01600
F1828       F  0.81142716  0.59715178  0.64045695    -0.12700
F1829       F  0.81556527  0.67181552  0.53561933    -0.13200
C1830       C  0.82389940  0.57082589  0.56402968     0.16500
C1831       C  0.82044819  0.54813225  0.55004063     0.25900
C1832       C  0.79846277  0.54208414  0.53478755    -0.40300
C1833       C  0.78008329  0.55898535  0.53292742     0.32900
C1834       C  0.78354841  0.58171909  0.54690652     0.14600
F1835       F  0.84531626  0.57657238  0.57839623    -0.12700
F1836       F  0.75865658  0.55322846  0.51861931    -0.13200
F1837       F  0.83868894  0.53219880  0.55061791    -0.15500
F1838       F  0.76549132  0.59785609  0.54580410    -0.14100
F1839       F  0.80881365  0.62702721  0.51182203    -0.14100
F1840       F  0.81670818  0.64190775  0.66575961    -0.15500
C1841       C  0.78756893  0.86222930  0.71325077     0.14600
C1842       C  0.78484214  0.88247875  0.68959896     0.01500
C1843       C  0.78760241  0.88053720  0.64986953     0.16500
C1844       C  0.79278110  0.85852896  0.63401303     0.25900
C1845       C  0.79580156  0.83829056  0.65775424    -0.40400
C1846       C  0.79332606  0.84036855  0.69753390     0.33000
C1847       C  0.77971179  0.90567795  0.70659674     0.01600
F1848       F  0.78564495  0.89999793  0.62645384    -0.12700
F1849       F  0.79546996  0.82106216  0.72121375    -0.13200
C1850       C  0.79443695  0.91416591  0.73504609     0.16500
C1851       C  0.78998808  0.93626197  0.75079832     0.25900
C1852       C  0.77152723  0.95055084  0.73701706    -0.40300
C1853       C  0.75653974  0.94212869  0.70907794     0.32900
C1854       C  0.76039035  0.91958245  0.69427635     0.14600
F1855       F  0.81381721  0.90157886  0.74624659    -0.12700
F1856       F  0.73845266  0.95586101  0.69591666    -0.13200
F1857       F  0.80482835  0.94454560  0.77738555    -0.15500
F1858       F  0.74540744  0.91139118  0.66783510    -0.14100
F1859       F  0.78405508  0.86352538  0.75160256    -0.14100
F1860       F  0.79515348  0.85709391  0.59550157    -0.15500
C1861       C  0.81902559  0.62540494  0.89103276     0.14600
C1862       C  0.82060886  0.61686677  0.85376391     0.01500
C1863       C  0.82320206  0.63323206  0.82311097     0.16500
C1864       C  0.82510265  0.65776712  0.82962517     0.25900
C1865       C  0.82448931  0.66643051  0.86716567    -0.40400
C1866       C  0.82083199  0.64982811  0.89772417     0.33000
C1867       C  0.82205214  0.59081536  0.84740769     0.01600
F1868       F  0.82508322  0.62529234  0.78689465    -0.12700
F1869       F  0.81955806  0.65705245  0.93441023    -0.13200
C1870       C  0.80241333  0.57790518  0.83473474     0.16500
C1871       C  0.80362357  0.55292016  0.83213838     0.25900
C1872       C  0.82460048  0.54064390  0.84183752    -0.40300
C1873       C  0.84447772  0.55383495  0.85277202     0.32900
C1874       C  0.84316047  0.57858180  0.85582694     0.14600
F1875       F  0.78167610  0.58934400  0.82714036    -0.12700
F1876       F  0.86484461  0.54246653  0.86274379    -0.13200
F1877       F  0.78377155  0.54064596  0.82328175    -0.15500
F1878       F  0.86226272  0.59057594  0.86854583    -0.14100
F1879       F  0.81639538  0.60994094  0.92118506    -0.14100
F1880       F  0.82872945  0.67280256  0.79918639    -0.15500
C1881       C  0.80768627  0.87037200  0.86363232     0.14600
C1882       C  0.80863920  0.87746638  0.90171631     0.01500
C1883       C  0.80992822  0.85988792  0.93068655     0.16500
C1884       C  0.80891188  0.83560591  0.92191324     0.25900
C1885       C  0.80676866  0.82841292  0.88375616    -0.40400
C1886       C  0.80697246  0.84620200  0.85470351     0.33000
C1887       C  0.80712083  0.90322150  0.91077237     0.01600
F1888       F  0.81108367  0.86626333  0.96767871    -0.12700
F1889       F  0.80625211  0.84028520  0.81745922    -0.13200
C1890       C  0.78657305  0.91625521  0.90148714     0.16500
C1891       C  0.78614465  0.94107855  0.90435503     0.25900
C1892       C  0.80612594  0.95335837  0.91699879    -0.40300
C1893       C  0.82611869  0.94026091  0.92871011     0.32900
C1894       C  0.82662329  0.91532503  0.92565612     0.14600
F1895       F  0.76731397  0.90498919  0.88778164    -0.12700
F1896       F  0.84587495  0.95179549  0.94000410    -0.13200
F1897       F  0.76686451  0.95336181  0.89197453    -0.15500
F1898       F  0.84678906  0.90323390  0.93445804    -0.14100
F1899       F  0.80717009  0.88698061  0.83493018    -0.14100
F1900       F  0.80899057  0.81927818  0.95104841    -0.15500
C1901       C  0.63787009  0.77291731  0.94259000     0.14600
C1902       C  0.65508316  0.75490876  0.94664032     0.01500
C1903       C  0.64840472  0.73264472  0.96265381     0.16500
C1904       C  0.62466134  0.72829938  0.97364878     0.25900
C1905       C  0.60737014  0.74604038  0.96824185    -0.40400
C1906       C  0.61412971  0.76851219  0.95344358     0.33000
C1907       C  0.67978445  0.75895404  0.93264253     0.01600
F1908       F  0.66475394  0.71494917  0.96662682    -0.12700
F1909       F  0.59784571  0.78634693  0.95058447    -0.13200
C1910       C  0.69879573  0.75683109  0.95753807     0.16500
C1911       C  0.72228779  0.75883534  0.94356700     0.25900
C1912       C  0.72717377  0.76299813  0.90417950    -0.40300
C1913       C  0.70785213  0.76618904  0.87970813     0.32900
C1914       C  0.68442970  0.76405108  0.89384172     0.14600
F1915       F  0.69457687  0.75267240  0.99542376    -0.12700
F1916       F  0.71145526  0.77069583  0.84180994    -0.13200
F1917       F  0.74012805  0.75638692  0.96874082    -0.15500
F1918       F  0.66622549  0.76603463  0.86927328    -0.14100
F1919       F  0.64416048  0.79480554  0.92848568    -0.14100
F1920       F  0.61840395  0.70663319  0.98872578    -0.15500
C1921       C  0.64444416  0.74990591  0.67745844     0.14600
C1922       C  0.65752979  0.76646584  0.65458727     0.01500
C1923       C  0.64513828  0.78412100  0.63422602     0.16500
C1924       C  0.62018566  0.78434259  0.63474201     0.25900
C1925       C  0.60692924  0.76670875  0.65523284    -0.40400
C1926       C  0.61931404  0.74988358  0.67757640     0.33000
C1927       C  0.68388284  0.76432442  0.64901803     0.01600
F1928       F  0.65728155  0.80068668  0.61259227    -0.12700
F1929       F  0.60732728  0.73222348  0.69688740    -0.13200
C1930       C  0.69358341  0.75872002  0.61295278     0.16500
C1931       C  0.71831124  0.75829034  0.60626692     0.25900
C1932       C  0.73410648  0.76393102  0.63539460    -0.40300
C1933       C  0.72430769  0.76871907  0.67198692     0.32900
C1934       C  0.69944163  0.76877093  0.67870943     0.14600
F1935       F  0.67899578  0.75388260  0.58388402    -0.12700
F1936       F  0.73865124  0.77446664  0.70088491    -0.13200
F1937       F  0.72671009  0.75261777  0.57091075    -0.15500
F1938       F  0.69051244  0.77420582  0.71381948    -0.14100
F1939       F  0.65602774  0.73275624  0.69759040    -0.14100
F1940       F  0.60890277  0.80120867  0.61351697    -0.15500
C1941       C  0.55437565  0.73615335  0.77167114     0.14600
C1942       C  0.56269380  0.75528896  0.79288989     0.01500
C1943       C  0.57052424  0.77612313  0.77321710     0.16500
C1944       C  0.57057746  0.77752551  0.73318480     0.25900
C1945       C  0.56234645  0.75835036  0.71213929    -0.40400
C1946       C  0.55404648  0.73775417  0.73175240     0.33000
C1947       C  0.56359991  0.75319738  0.83534802     0.01600
F1948       F  0.57854335  0.79495333  0.79275665    -0.12700
F1949       F  0.54621653  0.71891182  0.71205500    -0.13200
C1950       C  0.57719146  0.73508179  0.85264120     0.16500
C1951       C  0.57726293  0.73227520  0.89247223     0.25900
C1952       C  0.56399624  0.74772878  0.91605608    -0.40300
C1953       C  0.55112268  0.76642264  0.89875701     0.32900
C1954       C  0.55073429  0.76898434  0.85885383     0.14600
F1955       F  0.59054825  0.72012858  0.83083564    -0.12700
F1956       F  0.53922242  0.78248201  0.92049922    -0.13200
F1957       F  0.58986629  0.71402542  0.90799056    -0.15500
F1958       F  0.53741242  0.78665531  0.84314657    -0.14100
F1959       F  0.54637279  0.71592918  0.78969133    -0.14100
F1960       F  0.57834918  0.79772767  0.71488770    -0.15500
C1961       C  0.43136227  0.75743263  0.62293664     0.14600
C1962       C  0.44071760  0.75581747  0.65959327     0.01500
C1963       C  0.42491584  0.75645760  0.69140662     0.16500
C1964       C  0.40023956  0.75950896  0.68667076     0.25900
C1965       C  0.39092133  0.76250327  0.64987908    -0.40400
C1966       C  0.40685727  0.76067365  0.61807251     0.33000
C1967       C  0.46703953  0.75416992  0.66405099     0.01600
F1968       F  0.43344267  0.75425820  0.72711901    -0.12700
F1969       F  0.39883362  0.76218640  0.58195046    -0.13200
C1970       C  0.47982156  0.77331658  0.67877016     0.16500
C1971       C  0.50492154  0.77339505  0.67724563     0.25900
C1972       C  0.51758815  0.75427728  0.66117284    -0.40300
C1973       C  0.50479045  0.73459970  0.64842593     0.32900
C1974       C  0.47978883  0.73453796  0.64983127     0.14600
F1975       F  0.46799426  0.79274973  0.69185641    -0.12700
F1976       F  0.51659519  0.71598395  0.63250669    -0.13200
F1977       F  0.51676548  0.79304354  0.68822777    -0.15500
F1978       F  0.46797565  0.71575746  0.63564834    -0.14100
F1979       F  0.44614863  0.75669539  0.59162239    -0.14100
F1980       F  0.38565634  0.76021452  0.71818954    -0.15500
C1981       C  0.34164150  0.87144430  0.72286402     0.14600
C1982       C  0.33476987  0.89092249  0.70003327     0.01500
C1983       C  0.32425163  0.88725574  0.66492698     0.16500
C1984       C  0.32122276  0.86420112  0.65211357     0.25900
C1985       C  0.32882219  0.84463100  0.67429632    -0.40400
C1986       C  0.33875186  0.84834773  0.71001315     0.33000
C1987       C  0.33808677  0.91519929  0.71301824     0.01600
F1988       F  0.31661259  0.90603496  0.64344966    -0.12700
F1989       F  0.34629370  0.82969193  0.73186546    -0.13200
C1990       C  0.35559006  0.92989728  0.69543011     0.16500
C1991       C  0.35761374  0.95357669  0.70615665     0.25900
C1992       C  0.34212869  0.96254411  0.73453984    -0.40300
C1993       C  0.32511118  0.94758562  0.75278303     0.32900
C1994       C  0.32301449  0.92402686  0.74191905     0.14600
F1995       F  0.37056454  0.92125647  0.66790829    -0.12700
F1996       F  0.30989082  0.95612781  0.78003428    -0.13200
F1997       F  0.37471714  0.96763080  0.68921552    -0.15500
F1998       F  0.30577658  0.91002728  0.75861254    -0.14100
F1999       F  0.35144888  0.87487340  0.75723697    -0.14100
F2000       F  0.31034861  0.86094647  0.61854523    -0.15500
C2001       C  0.44170261  0.76130047  0.90005488     0.14600
C2002       C  0.44678269  0.75712799  0.93851010     0.01500
C2003       C  0.42812895  0.75710649  0.96606710     0.16500
C2004       C  0.40462938  0.76091828  0.95529806     0.25900
C2005       C  0.39929873  0.76460547  0.91651875    -0.40400
C2006       C  0.41825089  0.76492696  0.88907139     0.33000
C2007       C  0.47158699  0.75286646  0.94981788     0.01600
F2008       F  0.43260548  0.75274073  0.00340886    -0.12700
F2009       F  0.41422749  0.76820261  0.85134178    -0.13200
C2010       C  0.48204161  0.76763771  0.97642668     0.16500
C2011       C  0.50556478  0.76382474  0.98681474     0.25900
C2012       C  0.51909735  0.74551997  0.97017061    -0.40300
C2013       C  0.50867179  0.73054946  0.94391655     0.32900
C2014       C  0.48497914  0.73413700  0.93388855     0.14600
F2015       F  0.46963167  0.78608937  0.99168662    -0.12700
F2016       F  0.52123283  0.71215389  0.92881604    -0.13200
F2017       F  0.51540775  0.77844361  0.01235111    -0.15500
F2018       F  0.47494143  0.71909544  0.90919352    -0.14100
F2019       F  0.45953839  0.76191896  0.87300816    -0.14100
F2020       F  0.38716984  0.76065339  0.98296408    -0.15500
C2021       C  0.32014820  0.86676187  0.95185416     0.14600
C2022       C  0.32081551  0.88413676  0.92241907     0.01500
C2023       C  0.32123947  0.87678156  0.88438878     0.16500
C2024       C  0.32187255  0.85258530  0.87574905     0.25900
C2025       C  0.32211627  0.83496211  0.90501141    -0.40400
C2026       C  0.32076124  0.84239795  0.94331438     0.33000
C2027       C  0.32191352  0.91002628  0.93040796     0.01600
F2028       F  0.32121113  0.89319973  0.85536441    -0.12700
F2029       F  0.32103389  0.82620380  0.97262792    -0.13200
C2030       C  0.34155362  0.92342101  0.91637045     0.16500
C2031       C  0.34075069  0.94830416  0.91592959     0.25900
C2032       C  0.32056627  0.96032301  0.93045757    -0.40300
C2033       C  0.30171683  0.94703175  0.94742924     0.32900
C2034       C  0.30236512  0.92198179  0.94739709     0.14600
F2035       F  0.36098752  0.91232719  0.90099317    -0.12700
F2036       F  0.28180795  0.95826664  0.96076432    -0.13200
F2037       F  0.35909780  0.96075149  0.89906831    -0.15500
F2038       F  0.28313957  0.90949661  0.96111868    -0.14100
F2039       F  0.31988690  0.87338999  0.98884085    -0.14100
F2040       F  0.32234745  0.84649320  0.83851124    -0.15500
C2041       C  0.19908072  0.74049118  0.58504135     0.14600
C2042       C  0.18068544  0.74194464  0.61283157     0.01500
C2043       C  0.18657742  0.74558219  0.65093758     0.16500
C2044       C  0.21047920  0.74672831  0.66141452     0.25900
C2045       C  0.22914018  0.74417440  0.63394462    -0.40400
C2046       C  0.22305553  0.74163967  0.59536191     0.33000
C2047       C  0.15546105  0.73751215  0.60313729     0.01600
F2048       F  0.16906698  0.74735390  0.67830282    -0.12700
F2049       F  0.24022968  0.73879232  0.56774241    -0.13200
C2050       C  0.14409910  0.71675673  0.61731362     0.16500
C2051       C  0.11960744  0.71364866  0.61322187     0.25900
C2052       C  0.10583708  0.73134467  0.59526438    -0.40300
C2053       C  0.11741749  0.75136429  0.57854413     0.32900
C2054       C  0.14217423  0.75435909  0.58226618     0.14600
F2055       F  0.15657615  0.70000300  0.63691445    -0.12700
F2056       F  0.10450768  0.76899254  0.56184842    -0.13200
F2057       F  0.10889080  0.69411672  0.62953253    -0.15500
F2058       F  0.15282965  0.77446825  0.56797324    -0.14100
F2059       F  0.19384028  0.73656121  0.54818239    -0.14100
F2060       F  0.21527898  0.74975315  0.69869718    -0.15500
C2061       C  0.92448039  0.74078967  0.57224061     0.14600
C2062       C  0.94003591  0.72549294  0.59172478     0.01500
C2063       C  0.93058679  0.70888660  0.61854370     0.16500
C2064       C  0.90607203  0.70830955  0.62709501     0.25900
C2065       C  0.89045794  0.72449382  0.60912636    -0.40400
C2066       C  0.89988442  0.74019222  0.58056184     0.33000
C2067       C  0.96619787  0.72882105  0.58782563     0.01600
F2068       F  0.94526976  0.69396030  0.63786288    -0.12700
F2069       F  0.88550424  0.75559127  0.56159578    -0.13200
C2070       C  0.97637323  0.74945238  0.60223544     0.16500
C2071       C  0.00110707  0.75163773  0.60387679     0.25900
C2072       C  0.01619966  0.73334895  0.59082788    -0.40300
C2073       C  0.00612413  0.71306799  0.57490568     0.32900
C2074       C  0.98121050  0.71078210  0.57352697     0.14600
F2075       F  0.96226790  0.76673039  0.61738864    -0.12700
F2076       F  0.02025727  0.69468801  0.56375170    -0.13200
F2077       F  0.01037085  0.77099819  0.62061130    -0.15500
F2078       F  0.97170197  0.69056499  0.55988314    -0.14100
F2079       F  0.93326313  0.75676849  0.54583738    -0.14100
F2080       F  0.89768448  0.69190300  0.65315926    -0.15500
C2081       C  0.14915803  0.71153788  0.78768107     0.14600
C2082       C  0.15924031  0.69881041  0.81820765     0.01500
C2083       C  0.14682755  0.67942125  0.83530072     0.16500
C2084       C  0.12385108  0.67407176  0.82411324     0.25900
C2085       C  0.11340621  0.68760781  0.79509069    -0.40400
C2086       C  0.12639833  0.70575819  0.77590097     0.33000
C2087       C  0.18149385  0.70719295  0.83464164     0.01600
F2088       F  0.15672217  0.66615955  0.86356753    -0.12700
F2089       F  0.11630027  0.71903365  0.74781882    -0.13200
C2090       C  0.18170020  0.71303397  0.87339170     0.16500
C2091       C  0.20249467  0.72146038  0.88920212     0.25900
C2092       C  0.22313859  0.72491766  0.86617754    -0.40300
C2093       C  0.22283529  0.71943174  0.82725846     0.32900
C2094       C  0.20222802  0.71034747  0.81170737     0.14600
F2095       F  0.16155676  0.71110948  0.89571206    -0.12700
F2096       F  0.24275836  0.72204385  0.80458873    -0.13200
F2097       F  0.20229442  0.72676998  0.92677142    -0.15500
F2098       F  0.20263037  0.70425518  0.77445477    -0.14100
F2099       F  0.16065347  0.73050690  0.77099935    -0.14100
F2100       F  0.11153628  0.65608711  0.84211995    -0.15500
C2101       C  0.99676083  0.71905471  0.82542005     0.14600
C2102       C  0.97855821  0.70208008  0.82376031     0.01500
C2103       C  0.98389690  0.67879577  0.81252827     0.16500
C2104       C  0.00730362  0.67271152  0.80215306     0.25900
C2105       C  0.02547289  0.68985500  0.80323030    -0.40400
C2106       C  0.02004331  0.71307220  0.81478230     0.33000
C2107       C  0.95392460  0.70913346  0.83273698     0.01600
F2108       F  0.96648091  0.66203811  0.81188543    -0.12700
F2109       F  0.03704356  0.73027139  0.81405894    -0.13200
C2110       C  0.93697924  0.70991028  0.80406308     0.16500
C2111       C  0.91366534  0.71737781  0.81244485     0.25900
C2112       C  0.90719793  0.72410361  0.84967130    -0.40300
C2113       C  0.92461507  0.72412697  0.87788717     0.32900
C2114       C  0.94768477  0.71640136  0.86956290     0.14600
F2115       F  0.94309743  0.70344129  0.76802627    -0.12700
F2116       F  0.91925121  0.73144990  0.91378435    -0.13200
F2117       F  0.89730543  0.71710587  0.78469503    -0.15500
F2118       F  0.96387447  0.71561273  0.89762884    -0.14100
F2119       F  0.99177423  0.74166022  0.83615518    -0.14100
F2120       F  0.01229200  0.65012222  0.79136289    -0.15500
C2121       C  0.05752428  0.69289829  0.91602728     0.14600
C2122       C  0.07062200  0.71314043  0.92549618     0.01500
C2123       C  0.08384477  0.72537626  0.89649271     0.16500
C2124       C  0.08347201  0.71779960  0.85864265     0.25900
C2125       C  0.07054959  0.69732522  0.84929677    -0.40400
C2126       C  0.05773067  0.68493278  0.87852052     0.33000
C2127       C  0.06348422  0.72991025  0.45780898     0.01600
F2128       F  0.09708389  0.74470923  0.90483136    -0.12700
F2129       F  0.04528514  0.66502550  0.87065902    -0.13200
C2130       C  0.07477212  0.71221214  0.47996370     0.16500
C2131       C  0.07434844  0.71326785  0.51990222     0.25900
C2132       C  0.06261671  0.73201104  0.53862073    -0.40300
C2133       C  0.05142904  0.74980368  0.51655049     0.32900
C2134       C  0.05194806  0.74883590  0.47653973     0.14600
F2135       F  0.08629749  0.69386582  0.46281839    -0.12700
F2136       F  0.04014126  0.76823436  0.53381559    -0.13200
F2137       F  0.08470911  0.69551294  0.54043858    -0.15500
F2138       F  0.04069234  0.76608942  0.45611703    -0.14100
F2139       F  0.04395439  0.68115160  0.94302706    -0.14100
F2140       F  0.09485543  0.73108325  0.83098112    -0.15500
C2141       C  0.29278962  0.37823639  0.88623506     0.14600
C2142       C  0.29876496  0.38634756  0.84891134     0.01500
C2143       C  0.30357614  0.36935548  0.82083323     0.16500
C2144       C  0.30194255  0.34486036  0.82967004     0.25900
C2145       C  0.29522003  0.33668230  0.86688457    -0.40400
C2146       C  0.29080123  0.35385915  0.89503447     0.33000
C2147       C  0.29998963  0.41251140  0.83993462     0.01600
F2148       F  0.30918563  0.37644221  0.78443169    -0.12700
F2149       F  0.28436169  0.34722649  0.93132953    -0.13200
C2150       C  0.32081317  0.42295697  0.82345189     0.16500
C2151       C  0.32318691  0.44785962  0.82084488     0.25900
C2152       C  0.30498960  0.46274048  0.83506479    -0.40300
C2153       C  0.28374965  0.45234602  0.84966982     0.32900
C2154       C  0.28104183  0.42755131  0.85122023     0.14600
F2155       F  0.33969742  0.40916496  0.81298129    -0.12700
F2156       F  0.26641490  0.46616345  0.86561587    -0.13200
F2157       F  0.34424715  0.45742945  0.80810241    -0.15500
F2158       F  0.26032428  0.41819072  0.86586033    -0.14100
F2159       F  0.28907087  0.39400573  0.91459847    -0.14100
F2160       F  0.30638168  0.32924989  0.80132052    -0.15500
C2161       C  0.33506618  0.58906611  0.86500301     0.14600
C2162       C  0.31404772  0.60109556  0.85555538     0.01500
C2163       C  0.29600587  0.58855771  0.83750220     0.16500
C2164       C  0.29827897  0.56395922  0.83128663     0.25900
C2165       C  0.31873383  0.55152125  0.84292612    -0.40400
C2166       C  0.33751966  0.56465650  0.85836789     0.33000
C2167       C  0.31051140  0.62636826  0.86636885     0.01600
F2168       F  0.27549342  0.59985477  0.82820059    -0.12700
F2169       F  0.35780001  0.55348433  0.86931692    -0.13200
C2170       C  0.31320657  0.64484695  0.83904721     0.16500
C2171       C  0.30966509  0.66867591  0.84917312     0.25900
C2172       C  0.30328529  0.67461258  0.88710919    -0.40300
C2173       C  0.30077196  0.65585188  0.91451186     0.32900
C2174       C  0.30440534  0.63206829  0.90420680     0.14600
F2175       F  0.31929566  0.63976690  0.80239699    -0.12700
F2176       F  0.29404446  0.66031383  0.95115662    -0.13200
F2177       F  0.31236463  0.68586852  0.82156645    -0.15500
F2178       F  0.30140652  0.61447469  0.93111035    -0.14100
F2179       F  0.35284586  0.60078462  0.88217963    -0.14100
F2180       F  0.27958696  0.55205632  0.81715435    -0.15500
C2181       C  0.26353978  0.59367413  0.54945521     0.14600
C2182       C  0.28443782  0.60044886  0.56746825     0.01500
C2183       C  0.30386505  0.58468244  0.56915726     0.16500
C2184       C  0.30200465  0.56194943  0.55451804     0.25900
C2185       C  0.28090419  0.55505076  0.53738733    -0.40400
C2186       C  0.26191501  0.57112279  0.53405744     0.33000
C2187       C  0.28589135  0.62382544  0.58499466     0.01600
F2188       F  0.32466048  0.59145594  0.58459396    -0.12700
F2189       F  0.24156737  0.56464443  0.51699435    -0.13200
C2190       C  0.29070999  0.62542106  0.62393082     0.16500
C2191       C  0.29257463  0.64763725  0.64049511     0.25900
C2192       C  0.28958999  0.66841842  0.61822047    -0.40300
C2193       C  0.28432911  0.66675285  0.57938386     0.32900
C2194       C  0.28257127  0.64459530  0.56287869     0.14600
F2195       F  0.29358643  0.60543466  0.64583807    -0.12700
F2196       F  0.28077934  0.68661187  0.55739652    -0.13200
F2197       F  0.29812574  0.64884459  0.67780710    -0.15500
F2198       F  0.27812251  0.64342741  0.52512538    -0.14100
F2199       F  0.24454314  0.60866002  0.54768239    -0.14100
F2200       F  0.32087819  0.54681930  0.55642870    -0.15500
C2201       C  0.30552635  0.43094227  0.52052902     0.14600
C2202       C  0.28991856  0.41979264  0.54722529     0.01500
C2203       C  0.27036841  0.43232462  0.56263446     0.16500
C2204       C  0.26695774  0.45620000  0.55259081     0.25900
C2205       C  0.28309610  0.46764323  0.52706887    -0.40400
C2206       C  0.30206741  0.45481371  0.51034642     0.33000
C2207       C  0.29455110  0.39546569  0.56086354     0.01600
F2208       F  0.25476172  0.42139195  0.58761972    -0.12700
F2209       F  0.31781388  0.46572930  0.48555559    -0.13200
C2210       C  0.30259285  0.39168279  0.59795368     0.16500
C2211       C  0.30469194  0.36858390  0.61283324     0.25900
C2212       C  0.29887909  0.34903588  0.59057493    -0.40300
C2213       C  0.29178506  0.35289259  0.55277722     0.32900
C2214       C  0.28957472  0.37604816  0.53803833     0.14600
F2215       F  0.30809648  0.41045390  0.61980951    -0.12700
F2216       F  0.28587147  0.33431499  0.53080135    -0.13200
F2217       F  0.31251336  0.36531236  0.64883796    -0.15500
F2218       F  0.28167919  0.37957977  0.50213206    -0.14100
F2219       F  0.32451085  0.41896243  0.50550039    -0.14100
F2220       F  0.24788369  0.46810036  0.56749080    -0.15500
C2221       C  0.30554340  0.49705776  0.64031671     0.14600
C2222       C  0.28937991  0.50896019  0.66484441     0.01500
C2223       C  0.26933214  0.52011086  0.64892600     0.16500
C2224       C  0.26602018  0.52000090  0.60935941     0.25900
C2225       C  0.28269589  0.50886332  0.58474166    -0.40400
C2226       C  0.30231525  0.49711057  0.60077580     0.33000
C2227       C  0.29392703  0.51014025  0.70666499     0.01600
F2228       F  0.25331961  0.53177560  0.67152719    -0.12700
F2229       F  0.31894984  0.48649681  0.57800475    -0.13200
C2230       C  0.31557477  0.51944529  0.71935020     0.16500
C2231       C  0.32062842  0.51930461  0.75836465     0.25900
C2232       C  0.30408437  0.51005438  0.78569400    -0.40300
C2233       C  0.28210219  0.50153127  0.77317192     0.32900
C2234       C  0.27708662  0.50150246  0.73414820     0.14600
F2235       F  0.33192578  0.52863559  0.69380248    -0.12700
F2236       F  0.26536698  0.49334228  0.79884747    -0.13200
F2237       F  0.34211419  0.52734926  0.76934944    -0.15500
F2238       F  0.25603819  0.49233826  0.72317375    -0.14100
F2239       F  0.32463192  0.48541280  0.65472277    -0.14100
F2240       F  0.24651239  0.53088962  0.59495273    -0.15500
loop_ 
_geom_bond_atom_site_label_1 
_geom_bond_atom_site_label_2 
_geom_bond_distance 
_geom_bond_site_symmetry_2 
_ccdc_geom_bond_type 
N1            C5   1.353       .  A
N1            C2   1.353       .  A
N1         C1105   1.447       .  S
C2            C3   1.382   1_554  A
C2         C1085   1.468       .  S
C3            C4   1.377       .  A
C3            H6   1.081       .  S
C4            C5   1.382   1_556  A
C4            H7   1.082       .  S
C5         C1065   1.468       .  S
N8           C12   1.363       .  A
N8            C9   1.365       .  A
N8         C1112   1.443       .  S
C9           C10   1.384       .  A
C9         C1045   1.493       .  S
C10          C11   1.372       .  A
C10          H13   1.082       .  S
C11          C12   1.380       .  A
C11          H14   1.082       .  S
C12        C1032   1.486       .  S
N15          C19   1.351       .  A
N15          C16   1.351       .  A
N15        C1005   1.447       .  S
C16          C17   1.380       .  A
C16         C965   1.459       .  S
C17          C18   1.374       .  A
C17          H20   1.079       .  S
C18          C19   1.382       .  A
C18          H21   1.082       .  S
C19         C985   1.459       .  S
N22          C26   1.364       .  A
N22          C23   1.361       .  A
N22        C1012   1.442       .  S
C23          C24   1.381       .  A
C23         C932   1.485       .  S
C24          C25   1.373       .  A
C24          H27   1.082       .  S
C25          C26   1.383       .  A
C25          H28   1.082       .  S
C26         C952   1.490       .  S
O29         Ni35   1.932       .  S
O29          C50   1.272       .  A
O30         Ni53   1.868       .  S
O30          C39   1.258       .  A
O31         Ni35   1.915       .  S
O31         Ni53   1.892       .  S
O31         Ni47   1.897       .  S
O31          H54   0.966       .  S
C32         C972   1.465       .  S
C32          O49   1.266       .  A
C32          O41   1.275       .  A
O33         Ni52   1.927       .  S
O33          C39   1.272       .  A
O34         Ni52   1.918       .  S
O34          C36   1.270       .  A
Ni35         O38   1.925       .  S
Ni35         O40   1.916       .  S
C36        C1052   1.503       .  S
C36          O46   1.272       .  A
O37         Ni53   1.893       .  S
O37          C43   1.269       .  A
O38          C43   1.276       .  A
C39        C1185   1.443       .  S
O40          C42   1.270       .  A
O41         Ni52   1.931       .  S
C42         C905   1.499       .  S
C42          O48   1.273       .  A
C43         C885   1.482       .  S
H44          O45   0.966       .  S
O45         Ni53   1.905       .  S
O45         Ni47   1.893       .  S
O45         Ni52   1.922       .  S
O46         Ni47   1.936       .  S
Ni47         O51   1.868       .  S
Ni47         O49   1.881       .  S
O48         Ni53   1.939       .  S
C50          C76   1.447       .  S
C50          O51   1.256       .  A
O55         Ni61   1.930       .  S
O55          C76   1.273       .  A
O56         Ni79   1.867       .  S
O56          C65   1.255       .  A
O57         Ni61   1.920       .  S
O57         Ni79   1.890       .  S
O57         Ni73   1.894       .  S
O57          H80   0.967       .  S
C58         C865   1.454       .  S
C58          O75   1.260       .  A
C58          O67   1.271       .  A
O59         Ni78   1.921       .  S
O59          C65   1.269       .  A
O60         Ni78   1.908       .  S
O60          C62   1.270       .  A
Ni61         O64   1.932       .  S
Ni61         O66   1.918       .  S
C62         C845   1.506       .  S
C62          O72   1.277       .  A
O63         Ni79   1.880       .  S
O63          C69   1.265       .  A
O64          C69   1.276       .  A
C65        C1159   1.445       .  S
O66          C68   1.270       .  A
O67         Ni78   1.922       .  S
C68         C925   1.501       .  S
C68          O74   1.271       .  A
C69        C1072   1.478       .  S
H70          O71   0.965       .  S
O71         Ni79   1.906       .  S
O71         Ni73   1.903       .  S
O71         Ni78   1.924       .  S
O72         Ni73   1.954       .  S
Ni73         O77   1.872       .  S
Ni73         O75   1.876       .  S
O74         Ni79   1.937       .  S
C76          O77   1.257       .  A
N81          C85   1.369       .  A
N81          C82   1.368       .  A
N81         C825   1.447       .  S
C82          C83   1.382       .  A
C82         C852   1.493       .  S
C83          C84   1.368       .  A
C83          H86   1.083       .  S
C84          C85   1.383       .  A
C84          H87   1.082       .  S
C85         C805   1.497       .  S
N88          C92   1.354       .  A
N88          C89   1.351       .  A
N88         C832   1.447       .  S
C89          C90   1.380       .  A
C89         C892   1.461       .  S
C90          C91   1.376       .  A
C90          H93   1.082       .  S
C91          C92   1.384       .  A
C91          H94   1.082       .  S
C92         C785   1.472       .  S
O95        Ni101   1.931       .  S
O95         C116   1.272       .  A
O96        Ni119   1.877       .  S
O96         C105   1.258       .  A
O97        Ni101   1.916       .  S
O97        Ni119   1.897       .  S
O97        Ni113   1.905       .  S
O97         H120   0.966       .  S
C98         C792   1.472       .  S
C98         O115   1.274       .  A
C98         O107   1.275       .  A
O99        Ni118   1.921       .  S
O99         C105   1.268       .  A
O100       Ni118   1.915       .  S
O100        C102   1.269       .  A
Ni101       O104   1.930       .  S
Ni101       O106   1.913       .  S
C102        C765   1.485       .  S
C102        O112   1.269       .  A
O103       Ni119   1.884       .  S
O103        C109   1.266       .  A
O104        C109   1.275       .  A
C105        C131   1.445       .  S
O106        C108   1.270       .  A
O107       Ni118   1.916       .  S
C108        C745   1.502       .  S
C108        O114   1.273       .  A
C109        C992   1.466       .  S
H110        O111   0.966       .  S
O111       Ni119   1.903       .  S
O111       Ni113   1.896       .  S
O111       Ni118   1.918       .  S
O112       Ni113   1.920       .  S
Ni113       O117   1.883       .  S
Ni113       O115   1.906       .  S
O114       Ni119   1.939       .  S
C116       C1262   1.457       .  S
C116        O117   1.263       .  A
O121       Ni127   1.922       .  S
O121        C142   1.272       .  A
O122       Ni145   1.879       .  S
O122        C131   1.260       .  A
O123       Ni127   1.911       .  S
O123       Ni145   1.893       .  S
O123       Ni139   1.904       .  S
O123        H146   0.960       .  S
C124        C705   1.481       .  S
C124        O141   1.271       .  A
C124        O133   1.277       .  A
O125       Ni144   1.923       .  S
O125        C131   1.271       .  A
O126       Ni144   1.919       .  S
O126        C128   1.270       .  A
Ni127       O130   1.934       .  S
Ni127       O132   1.911       .  S
C128        C945   1.505       .  S
C128        O138   1.272       .  A
O129       Ni145   1.877       .  S
O129        C135   1.265       .  A
O130        C135   1.275       .  A
O132        C134   1.269       .  A
O133       Ni144   1.922       .  S
C134        C812   1.498       .  S
C134        O140   1.277       .  A
C135        C725   1.464       .  S
H136        O137   0.967       .  S
O137       Ni145   1.895       .  S
O137       Ni139   1.884       .  S
O137       Ni144   1.906       .  S
O138       Ni139   1.936       .  S
Ni139       O143   1.872       .  S
Ni139       O141   1.897       .  S
O140       Ni145   1.954       .  S
C142       C1236   1.442   1_554  S
C142        O143   1.261       .  A
N147        C151   1.355       .  A
N147        C148   1.355       .  A
N147        C685   1.451       .  S
C148        C149   1.383   1_554  A
C148        C712   1.472       .  S
C149        C150   1.375       .  A
C149        H152   1.082       .  S
C150        C151   1.381   1_556  A
C150        H153   1.081       .  S
C151        C672   1.464       .  S
N154        C158   1.367       .  A
N154        C155   1.364       .  A
N154        C692   1.442       .  S
C155        C156   1.380       .  A
C155        C752   1.486       .  S
C156        C157   1.370       .  A
C156        H159   1.083       .  S
C157        C158   1.383       .  A
C157        H160   1.081       .  S
C158        C645   1.497       .  S
N161        C165   1.363   1_565  A
N161        C162   1.360       .  A
N161        C625   1.446       .  S
C162        C163   1.380       .  A
C162        C772   1.476       .  S
C163        C164   1.368   1_565  A
C163        H166   1.083       .  S
C164        C165   1.381       .  A
C164        H167   1.082       .  S
C165        C605   1.479       .  S
N168        C172   1.349   1_565  A
N168        C169   1.348       .  A
N168        C632   1.446       .  S
C169        C170   1.381       .  A
C169        C732   1.452       .  S
C170        C171   1.374   1_565  A
C170        H173   1.082       .  S
C171        C172   1.382       .  A
C171        H174   1.082       .  S
C172        C585   1.454       .  S
O175       Ni181   1.922       .  S
O175        C196   1.271       .  A
O176       Ni199   1.885       .  S
O176        C185   1.265       .  A
O177       Ni181   1.910       .  S
O177       Ni199   1.889       .  S
O177       Ni193   1.903       .  S
O177        H200   0.966       .  S
C178        C572   1.487       .  S
C178        O195   1.271       .  A
C178        O187   1.275       .  A
O179       Ni198   1.921       .  S
O179        C185   1.270       .  A
O180       Ni198   1.917       .  S
O180        C182   1.271       .  A
Ni181       O184   1.918       .  S
Ni181       O186   1.922       .  S
C182        C652   1.509       .  S
C182        O192   1.277       .  A
O183       Ni199   1.917       .  S
O183        C189   1.278       .  A
O184        C189   1.276       .  A
C185       C1331   1.449       .  S
O186        C188   1.270       .  A
O187       Ni198   1.921       .  S
C188        C612   1.496       .  S
C188        O194   1.272       .  A
C189        C545   1.472       .  S
H190        O191   0.966       .  S
O191       Ni199   1.917       .  S
O191       Ni193   1.893       .  S
O191       Ni198   1.908       .  S
O192       Ni193   1.946       .  S
Ni193       O197   1.876       .  S
Ni193       O195   1.907       .  S
O194       Ni199   1.933       .  S
C196        C222   1.444       .  S
C196        O197   1.261       .  A
O201       Ni207   1.923       .  S
O201        C222   1.270       .  A
O202       Ni225   1.881       .  S
O202        C211   1.261       .  A
O203       Ni207   1.916       .  S
O203       Ni225   1.899       .  S
O203       Ni219   1.904       .  S
O203        H226   0.962       .  S
C204        C592   1.474       .  S
C204        O221   1.270       .  A
C204        O213   1.273       .  A
O205       Ni224   1.918       .  S
O205        C211   1.267       .  A
O206       Ni224   1.906       .  S
O206        C208   1.268       .  A
Ni207       O210   1.923       .  S
Ni207       O212   1.908       .  S
C208        C505   1.502       .  S
C208        O218   1.274       .  A
O209       Ni225   1.886       .  S
O209        C215   1.267       .  A
O210        C215   1.275       .  A
C211       C1305   1.445   1_554  S
O212        C214   1.269       .  A
O213       Ni224   1.911       .  S
C214        C532   1.495       .  S
C214        O220   1.273       .  A
C215        C665   1.479       .  S
H216        O217   0.972       .  S
O217       Ni225   1.893       .  S
O217       Ni219   1.894       .  S
O217       Ni224   1.911       .  S
O218       Ni219   1.943       .  S
Ni219       O223   1.877       .  S
Ni219       O221   1.898       .  S
O220       Ni225   1.935       .  S
C222        O223   1.261       .  A
N227        C231   1.363       .  A
N227        C228   1.366       .  A
N227        C485   1.443       .  S
C228        C229   1.382       .  A
C228        C472   1.489       .  S
C229        C230   1.374       .  A
C229        H232   1.082       .  S
C230        C231   1.380       .  A
C230        H233   1.082       .  S
C231        C512   1.488       .  S
N234        C238   1.351       .  A
N234        C235   1.352       .  A
N234        C492   1.440       .  S
C235        C236   1.385       .  A
C235        C552   1.470       .  S
C236        C237   1.378       .  A
C236        H239   1.082       .  S
C237        C238   1.382       .  A
C237        H240   1.082       .  S
C238        C445   1.471       .  S
N241        C245   1.364       .  A
N241        C242   1.363   1_545  A
N241        C432   1.445       .  S
C242        C243   1.382       .  A
C242        C912   1.487       .  S
C243        C244   1.373   1_565  A
C243        H246   1.082       .  S
C244        C245   1.382       .  A
C244        H247   1.082       .  S
C245        C405   1.489       .  S
N248        C252   1.349   1_545  A
N248        C249   1.348       .  A
N248        C425   1.451       .  S
C249        C250   1.381       .  A
C249        C385   1.449       .  S
C250        C251   1.373   1_545  A
C250        H253   1.082       .  S
C251        C252   1.382       .  A
C251        H254   1.082       .  S
C252        C872   1.451       .  S
N255        C259   1.354       .  A
N255        C256   1.356       .  A
N255        C372   1.445       .  S
C256        C257   1.383       .  A
C256        C565   1.472       .  S
C257        C258   1.376       .  A
C257        H260   1.082       .  S
C258        C259   1.382       .  A
C258        H261   1.082       .  S
C259        C345   1.470       .  S
N262        C266   1.361       .  A
N262        C263   1.361       .  A
N262        C365   1.443       .  S
C263        C264   1.381       .  A
C263        C325   1.483       .  S
C264        C265   1.373       .  A
C264        H267   1.082       .  S
C265        C266   1.382       .  A
C265        H268   1.083       .  S
C266        C525   1.482       .  S
O269       Ni275   1.926       .  S
O269        C290   1.271       .  A
O270       Ni293   1.876       .  S
O270        C279   1.259       .  A
O271       Ni275   1.914       .  S
O271       Ni293   1.897       .  S
O271       Ni287   1.907       .  S
O271        H294   0.961       .  S
C272        C452   1.484       .  S
C272        O289   1.270       .  A
C272        O281   1.277       .  A
O273       Ni292   1.936       .  S
O273        C279   1.274       .  A
O274       Ni292   1.914       .  S
O274        C276   1.270       .  A
Ni275       O278   1.924       .  S
Ni275       O280   1.912       .  S
C276        C412   1.498       .  S
C276        O286   1.273       .  A
O277       Ni293   1.899       .  S
O277        C283   1.270       .  A
O278        C283   1.275       .  A
C279        C305   1.454       .  S
O280        C282   1.270       .  A
O281       Ni292   1.934       .  S
C282       C1025   1.498       .  S
C282        O288   1.273       .  A
C283        C352   1.474       .  S
H284        O285   0.970       .  S
O285       Ni293   1.906       .  S
O285       Ni287   1.898       .  S
O285       Ni292   1.915       .  S
O286       Ni287   1.941       .  S
Ni287       O291   1.877       .  S
Ni287       O289   1.900       .  S
O288       Ni293   1.938       .  S
C290       C1436   1.447       .  S
C290        O291   1.259       .  A
O295       Ni301   1.921       .  S
O295        C316   1.269       .  A
O296       Ni319   1.878       .  S
O296        C305   1.259       .  A
O297       Ni301   1.919       .  S
O297       Ni319   1.890       .  S
O297       Ni313   1.899       .  S
O297        H320   0.967       .  S
C298       C1092   1.477       .  S
C298        O315   1.267       .  A
C298        O307   1.277       .  A
O299       Ni318   1.931       .  S
O299        C305   1.273       .  A
O300       Ni318   1.919       .  S
O300        C302   1.271       .  A
Ni301       O304   1.916       .  S
Ni301       O306   1.921       .  S
C302        C332   1.503       .  S
C302        O312   1.273       .  A
O303       Ni319   1.891       .  S
O303        C309   1.270       .  A
O304        C309   1.274       .  A
O306        C308   1.270       .  A
O307       Ni318   1.932       .  S
C308        C465   1.505       .  S
C308        O314   1.270       .  A
C309        C392   1.473       .  S
H310        O311   0.966       .  S
O311       Ni319   1.906       .  S
O311       Ni313   1.897       .  S
O311       Ni318   1.916       .  S
O312       Ni313   1.939       .  S
Ni313       O317   1.871       .  S
Ni313       O315   1.892       .  S
O314       Ni319   1.929       .  S
C316       C1410   1.440   1_554  S
C316        O317   1.257       .  A
C321        C322   1.407       .  A
C321        C326   1.401       .  A
C321        F339   1.358       .  S
C322        C323   1.408       .  A
C322        C327   1.491       .  S
C323        C324   1.406       .  A
C323        F328   1.357       .  S
C324        C325   1.405       .  A
C324        F340   1.357       .  S
C325        C326   1.406       .  A
C326        F329   1.358       .  S
C327        C330   1.405       .  A
C327        C334   1.404       .  A
C330        C331   1.403       .  A
C330        F335   1.358       .  S
C331        C332   1.413       .  A
C331        F337   1.358       .  S
C332        C333   1.417       .  A
C333        C334   1.407       .  A
C333        F336   1.358       .  S
C334        F338   1.358       .  S
C341        C342   1.405       .  A
C341        C346   1.397       .  A
C341        F359   1.358       .  S
C342        C343   1.403       .  A
C342        C347   1.472       .  S
C343        C344   1.395       .  A
C343        F348   1.358       .  S
C344        C345   1.404       .  A
C344        F360   1.358       .  S
C345        C346   1.404       .  A
C346        F349   1.357       .  S
C347        C350   1.403       .  A
C347        C354   1.403       .  A
C350        C351   1.396       .  A
C350        F355   1.358       .  S
C351        C352   1.407       .  A
C351        F357   1.358       .  S
C352        C353   1.409       .  A
C353        C354   1.396       .  A
C353        F356   1.359       .  S
C354        F358   1.358       .  S
C361        C362   1.406       .  A
C361        C366   1.400   1_556  A
C361        F379   1.358       .  S
C362        C363   1.406       .  A
C362       C1487   1.485       .  S
C363        C364   1.403   1_556  A
C363        F368   1.358       .  S
C364        C365   1.408       .  A
C364        F380   1.357       .  S
C365        C366   1.405       .  A
C366        F369   1.356       .  S
C367        C370   1.408       .  A
C367        C374   1.409       .  A
C367       C1482   1.492       .  S
C370        C371   1.404       .  A
C370        F375   1.357       .  S
C371        C372   1.406       .  A
C371        F377   1.357       .  S
C372        C373   1.404       .  A
C373        C374   1.403       .  A
C373        F376   1.357       .  S
C374        F378   1.358       .  S
C381        C382   1.398       .  A
C381        C386   1.387       .  A
C381        F399   1.358       .  S
C382        C383   1.402       .  A
C382        C387   1.450       .  S
C383        C384   1.391       .  A
C383        F388   1.358       .  S
C384        C385   1.399       .  A
C384        F400   1.358       .  S
C385        C386   1.401       .  A
C386        F389   1.358       .  S
C387        C390   1.395       .  A
C387        C394   1.397       .  A
C390        C391   1.388       .  A
C390        F395   1.358       .  S
C391        C392   1.413       .  A
C391        F397   1.358       .  S
C392        C393   1.412       .  A
C393        C394   1.391       .  A
C393        F396   1.358       .  S
C394        F398   1.359       .  S
C401        C402   1.407       .  A
C401        C406   1.405       .  A
C401        F419   1.358       .  S
C402        C403   1.410       .  A
C402        C407   1.495       .  S
C403        C404   1.405       .  A
C403        F408   1.358       .  S
C404        C405   1.405       .  A
C404        F420   1.357       .  S
C405        C406   1.409       .  A
C406        F409   1.358       .  S
C407        C410   1.408       .  A
C407        C414   1.405       .  A
C410        C411   1.410       .  A
C410        F415   1.358       .  S
C411        C412   1.414       .  A
C411        F417   1.358       .  S
C412        C413   1.411       .  A
C413        C414   1.400       .  A
C413        F416   1.358       .  S
C414        F418   1.358       .  S
C421        C422   1.409   1_565  A
C421        C426   1.408       .  A
C421        F439   1.358       .  S
C422        C423   1.408       .  A
C422       C1547   1.496       .  S
C423        C424   1.403       .  A
C423        F428   1.358       .  S
C424        C425   1.405       .  A
C424        F440   1.357       .  S
C425        C426   1.408   1_545  A
C426        F429   1.357       .  S
C427        C430   1.406       .  A
C427        C434   1.407   1_545  A
C427       C1542   1.489       .  S
C430        C431   1.401       .  A
C430        F435   1.358       .  S
C431        C432   1.407       .  A
C431        F437   1.357       .  S
C432        C433   1.406   1_545  A
C433        C434   1.403       .  A
C433        F436   1.357       .  S
C434        F438   1.358       .  S
C441        C442   1.404       .  A
C441        C446   1.395       .  A
C441        F459   1.358       .  S
C442        C443   1.403       .  A
C442        C447   1.472       .  S
C443        C444   1.398       .  A
C443        F448   1.358       .  S
C444        C445   1.407       .  A
C444        F460   1.357       .  S
C445        C446   1.401       .  A
C446        F449   1.358       .  S
C447        C450   1.402       .  A
C447        C454   1.401       .  A
C450        C451   1.397       .  A
C450        F455   1.358       .  S
C451        C452   1.412       .  A
C451        F457   1.358       .  S
C452        C453   1.411       .  A
C453        C454   1.398       .  A
C453        F456   1.358       .  S
C454        F458   1.358       .  S
C461        C462   1.407       .  A
C461        C466   1.404       .  A
C461        F479   1.358       .  S
C462        C463   1.405       .  A
C462        C467   1.496       .  S
C463        C464   1.407       .  A
C463        F468   1.358       .  S
C464        C465   1.418       .  A
C464        F480   1.358       .  S
C465        C466   1.413       .  A
C466        F469   1.357       .  S
C467        C470   1.408       .  A
C467        C474   1.408       .  A
C470        C471   1.408       .  A
C470        F475   1.358       .  S
C471        C472   1.409       .  A
C471        F477   1.358       .  S
C472        C473   1.405       .  A
C473        C474   1.405       .  A
C473        F476   1.357       .  S
C474        F478   1.357       .  S
C481        C482   1.408       .  A
C481        C486   1.402       .  A
C481        F499   1.358       .  S
C482        C483   1.406       .  A
C482        C487   1.488       .  S
C483        C484   1.401       .  A
C483        F488   1.358       .  S
C484        C485   1.406       .  A
C484        F500   1.356       .  S
C485        C486   1.406       .  A
C486        F489   1.356       .  S
C487        C490   1.407       .  A
C487        C494   1.409       .  A
C490        C491   1.399       .  A
C490        F495   1.358       .  S
C491        C492   1.403       .  A
C491        F497   1.357       .  S
C492        C493   1.403       .  A
C493        C494   1.402       .  A
C493        F496   1.357       .  S
C494        F498   1.358       .  S
C501        C502   1.408       .  A
C501        C506   1.400       .  A
C501        F519   1.358       .  S
C502        C503   1.409       .  A
C502        C507   1.501       .  S
C503        C504   1.409       .  A
C503        F508   1.357       .  S
C504        C505   1.414       .  A
C504        F520   1.358       .  S
C505        C506   1.413       .  A
C506        F509   1.358       .  S
C507        C510   1.410       .  A
C507        C514   1.412       .  A
C510        C511   1.401       .  A
C510        F515   1.358       .  S
C511        C512   1.405       .  A
C511        F517   1.358       .  S
C512        C513   1.406       .  A
C513        C514   1.409       .  A
C513        F516   1.357       .  S
C514        F518   1.357       .  S
C521        C522   1.406       .  A
C521        C526   1.405       .  A
C521        F539   1.357       .  S
C522        C523   1.404       .  A
C522        C527   1.483       .  S
C523        C524   1.400       .  A
C523        F528   1.358       .  S
C524        C525   1.406   1_655  A
C524        F540   1.358   1_655  S
C525        C526   1.406   1_455  A
C526        F529   1.357   1_655  S
C527        C530   1.403       .  A
C527        C534   1.403       .  A
C530        C531   1.404       .  A
C530        F535   1.357       .  S
C531        C532   1.414       .  A
C531        F537   1.358       .  S
C532        C533   1.413       .  A
C533        C534   1.399       .  A
C533        F536   1.358       .  S
C534        F538   1.358       .  S
C541        C542   1.405       .  A
C541        C546   1.397       .  A
C541        F559   1.358       .  S
C542        C543   1.403       .  A
C542        C547   1.473       .  S
C543        C544   1.395       .  A
C543        F548   1.359       .  S
C544        C545   1.408       .  A
C544        F560   1.358       .  S
C545        C546   1.405       .  A
C546        F549   1.358       .  S
C547        C550   1.404       .  A
C547        C554   1.406       .  A
C550        C551   1.393       .  A
C550        F555   1.358       .  S
C551        C552   1.404       .  A
C551        F557   1.358       .  S
C552        C553   1.404       .  A
C553        C554   1.397       .  A
C553        F556   1.358       .  S
C554        F558   1.358       .  S
C561        C562   1.402       .  A
C561        C566   1.394   1_655  A
C561        F579   1.358       .  S
C562        C563   1.402       .  A
C562        C567   1.468       .  S
C563        C564   1.398       .  A
C563        F568   1.358       .  S
C564        C565   1.406   1_655  A
C564        F580   1.358   1_655  S
C565        C566   1.404       .  A
C566        F569   1.357       .  S
C567        C570   1.399       .  A
C567        C574   1.400       .  A
C570        C571   1.393       .  A
C570        F575   1.358       .  S
C571        C572   1.412       .  A
C571        F577   1.358       .  S
C572        C573   1.416       .  A
C573        C574   1.399       .  A
C573        F576   1.358       .  S
C574        F578   1.358       .  S
C581        C582   1.403       .  A
C581        C586   1.389       .  A
C581        F599   1.358       .  S
C582        C583   1.401       .  A
C582        C587   1.458       .  S
C583        C584   1.392       .  A
C583        F588   1.358       .  S
C584        C585   1.403       .  A
C584        F600   1.358       .  S
C585        C586   1.399       .  A
C586        F589   1.358       .  S
C587        C590   1.400       .  A
C587        C594   1.398       .  A
C590        C591   1.393       .  A
C590        F595   1.358       .  S
C591        C592   1.412       .  A
C591        F597   1.358       .  S
C592        C593   1.411       .  A
C593        C594   1.388       .  A
C593        F596   1.358       .  S
C594        F598   1.359       .  S
C601        C602   1.406       .  A
C601        C606   1.402       .  A
C601        F619   1.357       .  S
C602        C603   1.406       .  A
C602        C607   1.488       .  S
C603        C604   1.405       .  A
C603        F608   1.358       .  S
C604        C605   1.407       .  A
C604        F620   1.358       .  S
C605        C606   1.404       .  A
C606        F609   1.358       .  S
C607        C610   1.402       .  A
C607        C614   1.407       .  A
C610        C611   1.402       .  A
C610        F615   1.358       .  S
C611        C612   1.413       .  A
C611        F617   1.358       .  S
C612        C613   1.411       .  A
C613        C614   1.407       .  A
C613        F616   1.358       .  S
C614        F618   1.358       .  S
C621        C622   1.411       .  A
C621        C626   1.405       .  A
C621        F639   1.358   1_565  S
C622        C623   1.410       .  A
C622       C1747   1.500       .  S
C623        C624   1.406       .  A
C623        F628   1.357       .  S
C624        C625   1.405       .  A
C624        F640   1.357       .  S
C625        C626   1.405       .  A
C626        F629   1.357   1_565  S
C627        C630   1.410   1_565  A
C627        C634   1.410       .  A
C627       C1742   1.495       .  S
C630        C631   1.405       .  A
C630        F635   1.358       .  S
C631        C632   1.405   1_545  A
C631        F637   1.357       .  S
C632        C633   1.404       .  A
C633        C634   1.401       .  A
C633        F636   1.356       .  S
C634        F638   1.358       .  S
C641        C642   1.404       .  A
C641        C646   1.401       .  A
C641        F659   1.358       .  S
C642        C643   1.411       .  A
C642        C647   1.498       .  S
C643        C644   1.413       .  A
C643        F648   1.357       .  S
C644        C645   1.408       .  A
C644        F660   1.357       .  S
C645        C646   1.411       .  A
C646        F649   1.358       .  S
C647        C650   1.406       .  A
C647        C654   1.406       .  A
C650        C651   1.410       .  A
C650        F655   1.357       .  S
C651        C652   1.416       .  A
C651        F657   1.357       .  S
C652        C653   1.417       .  A
C653        C654   1.404       .  A
C653        F656   1.358       .  S
C654        F658   1.358       .  S
C661        C662   1.400       .  A
C661        C666   1.392       .  A
C661        F679   1.358       .  S
C662        C663   1.398       .  A
C662        C667   1.463       .  S
C663        C664   1.394       .  A
C663        F668   1.358   1_554  S
C664        C665   1.415       .  A
C664        F680   1.358       .  S
C665        C666   1.411       .  A
C666        F669   1.358       .  S
C667        C670   1.402       .  A
C667        C674   1.402       .  A
C670        C671   1.396       .  A
C670        F675   1.358       .  S
C671        C672   1.406       .  A
C671        F677   1.358   1_554  S
C672        C673   1.400       .  A
C673        C674   1.391       .  A
C673        F676   1.357       .  S
C674        F678   1.358       .  S
C681        C682   1.410       .  A
C681        C686   1.405       .  A
C681        F699   1.358       .  S
C682        C683   1.408       .  A
C682        C687   1.494       .  S
C683        C684   1.400       .  A
C683        F688   1.358       .  S
C684        C685   1.406       .  A
C684        F700   1.357       .  S
C685        C686   1.409       .  A
C686        F689   1.356       .  S
C687        C690   1.410       .  A
C687        C694   1.409       .  A
C690        C691   1.404       .  A
C690        F695   1.358       .  S
C691        C692   1.406       .  A
C691        F697   1.357       .  S
C692        C693   1.402       .  A
C693        C694   1.402       .  A
C693        F696   1.357       .  S
C694        F698   1.357       .  S
C701        C702   1.400       .  A
C701        C706   1.392       .  A
C701        F719   1.358       .  S
C702        C703   1.403       .  A
C702        C707   1.471       .  S
C703        C704   1.396       .  A
C703        F708   1.358       .  S
C704        C705   1.411       .  A
C704        F720   1.358       .  S
C705        C706   1.414       .  A
C706        F709   1.359       .  S
C707        C710   1.402       .  A
C707        C714   1.406       .  A
C710        C711   1.391       .  A
C710        F715   1.358       .  S
C711        C712   1.404       .  A
C711        F717   1.357       .  S
C712        C713   1.405       .  A
C713        C714   1.397       .  A
C713        F716   1.358       .  S
C714        F718   1.358       .  S
C721        C722   1.401       .  A
C721        C726   1.389       .  A
C721        F739   1.359       .  S
C722        C723   1.403       .  A
C722        C727   1.462       .  S
C723        C724   1.393       .  A
C723        F728   1.358       .  S
C724        C725   1.406       .  A
C724        F740   1.358       .  S
C725        C726   1.408       .  A
C726        F729   1.359       .  S
C727        C730   1.404       .  A
C727        C734   1.404       .  A
C730        C731   1.388       .  A
C730        F735   1.358       .  S
C731        C732   1.398       .  A
C731        F737   1.358       .  S
C732        C733   1.400       .  A
C733        C734   1.393       .  A
C733        F736   1.358       .  S
C734        F738   1.358       .  S
C741        C742   1.404       .  A
C741        C746   1.400       .  A
C741        F759   1.358       .  S
C742        C743   1.404       .  A
C742        C747   1.489       .  S
C743        C744   1.408       .  A
C743        F748   1.358       .  S
C744        C745   1.418       .  A
C744        F760   1.358       .  S
C745        C746   1.413       .  A
C746        F749   1.358       .  S
C747        C750   1.407       .  A
C747        C754   1.405       .  A
C750        C751   1.409       .  A
C750        F755   1.358       .  S
C751        C752   1.408       .  A
C751        F757   1.357       .  S
C752        C753   1.406       .  A
C753        C754   1.400       .  A
C753        F756   1.358       .  S
C754        F758   1.358       .  S
C761        C762   1.408       .  A
C761        C766   1.402       .  A
C761        F779   1.358       .  S
C762        C763   1.401       .  A
C762        C767   1.482       .  S
C763        C764   1.399       .  A
C763        F768   1.357       .  S
C764        C765   1.411       .  A
C764        F780   1.358       .  S
C765        C766   1.409       .  A
C766        F769   1.358       .  S
C767        C770   1.403       .  A
C767        C774   1.407       .  A
C770        C771   1.397       .  A
C770        F775   1.358       .  S
C771        C772   1.405       .  A
C771        F777   1.358       .  S
C772        C773   1.405       .  A
C773        C774   1.405       .  A
C773        F776   1.358       .  S
C774        F778   1.358       .  S
C781        C782   1.400       .  A
C781        C786   1.393       .  A
C781        F799   1.358       .  S
C782        C783   1.402       .  A
C782        C787   1.464       .  S
C783        C784   1.394       .  A
C783        F788   1.358       .  S
C784        C785   1.404       .  A
C784        F800   1.358       .  S
C785        C786   1.407       .  A
C786        F789   1.357       .  S
C787        C790   1.401       .  A
C787        C794   1.400       .  A
C790        C791   1.395       .  A
C790        F795   1.358       .  S
C791        C792   1.409       .  A
C791        F797   1.358       .  S
C792        C793   1.409       .  A
C793        C794   1.393       .  A
C793        F796   1.358       .  S
C794        F798   1.358       .  S
C801        C802   1.408       .  A
C801        C806   1.412       .  A
C801        F819   1.357       .  S
C802        C803   1.402       .  A
C802        C807   1.491       .  S
C803        C804   1.400       .  A
C803        F808   1.358       .  S
C804        C805   1.411       .  A
C804        F820   1.358       .  S
C805        C806   1.410       .  A
C806        F809   1.357       .  S
C807        C810   1.406       .  A
C807        C814   1.404       .  A
C810        C811   1.405       .  A
C810        F815   1.358       .  S
C811        C812   1.413       .  A
C811        F817   1.358       .  S
C812        C813   1.412       .  A
C813        C814   1.405       .  A
C813        F816   1.357       .  S
C814        F818   1.357       .  S
C821        C822   1.406       .  A
C821        C826   1.402       .  A
C821        F839   1.358       .  S
C822        C823   1.406       .  A
C822        C827   1.487       .  S
C823        C824   1.404       .  A
C823        F828   1.358       .  S
C824        C825   1.409       .  A
C824        F840   1.357       .  S
C825        C826   1.407       .  A
C826        F829   1.356       .  S
C827        C830   1.406       .  A
C827        C834   1.406       .  A
C830        C831   1.401       .  A
C830        F835   1.358       .  S
C831        C832   1.406       .  A
C831        F837   1.357       .  S
C832        C833   1.407       .  A
C833        C834   1.402       .  A
C833        F836   1.356       .  S
C834        F838   1.358       .  S
C841        C842   1.408       .  A
C841        C846   1.401       .  A
C841        F859   1.358       .  S
C842        C843   1.408       .  A
C842        C847   1.502       .  S
C843        C844   1.411       .  A
C843        F848   1.357       .  S
C844        C845   1.416       .  A
C844        F860   1.358       .  S
C845        C846   1.414       .  A
C846        F849   1.358       .  S
C847        C850   1.414       .  A
C847        C854   1.407       .  A
C850        C851   1.413       .  A
C850        F855   1.357       .  S
C851        C852   1.407       .  A
C851        F857   1.357       .  S
C852        C853   1.408       .  A
C853        C854   1.399       .  A
C853        F856   1.358       .  S
C854        F858   1.358       .  S
C861        C862   1.400       .  A
C861        C866   1.391       .  A
C861        F879   1.358       .  S
C862        C863   1.401       .  A
C862        C867   1.453       .  S
C863        C864   1.389       .  A
C863        F868   1.358       .  S
C864        C865   1.402       .  A
C864        F880   1.358       .  S
C865        C866   1.405       .  A
C866        F869   1.358       .  S
C867        C870   1.402       .  A
C867        C874   1.401       .  A
C870        C871   1.388       .  A
C870        F875   1.358       .  S
C871        C872   1.400       .  A
C871        F877   1.358       .  S
C872        C873   1.402       .  A
C873        C874   1.390       .  A
C873        F876   1.358       .  S
C874        F878   1.358       .  S
C881        C882   1.400       .  A
C881        C886   1.394       .  A
C881        F899   1.358       .  S
C882        C883   1.400       .  A
C882        C887   1.466       .  S
C883        C884   1.394       .  A
C883        F888   1.358       .  S
C884        C885   1.415       .  A
C884        F900   1.359       .  S
C885        C886   1.412       .  A
C886        F889   1.358       .  S
C887        C890   1.401       .  A
C887        C894   1.405       .  A
C890        C891   1.392       .  A
C890        F895   1.358       .  S
C891        C892   1.403       .  A
C891        F897   1.358       .  S
C892        C893   1.400       .  A
C893        C894   1.396       .  A
C893        F896   1.358       .  S
C894        F898   1.358       .  S
C901        C902   1.407       .  A
C901        C906   1.409       .  A
C901        F919   1.358       .  S
C902        C903   1.407       .  A
C902        C907   1.495       .  S
C903        C904   1.401       .  A
C903        F908   1.358       .  S
C904        C905   1.410       .  A
C904        F920   1.358       .  S
C905        C906   1.415       .  A
C906        F909   1.358       .  S
C907        C910   1.407       .  A
C907        C914   1.410       .  A
C910        C911   1.400       .  A
C910        F915   1.358       .  S
C911        C912   1.406       .  A
C911        F917   1.358       .  S
C912        C913   1.406       .  A
C913        C914   1.409       .  A
C913        F916   1.357       .  S
C914        F918   1.357       .  S
C921        C922   1.406       .  A
C921        C926   1.406       .  A
C921        F939   1.358       .  S
C922        C923   1.409       .  A
C922        C927   1.497       .  S
C923        C924   1.404       .  A
C923        F928   1.358       .  S
C924        C925   1.411       .  A
C924        F940   1.357       .  S
C925        C926   1.416       .  A
C926        F929   1.358       .  S
C927        C930   1.408       .  A
C927        C934   1.411       .  A
C930        C931   1.401       .  A
C930        F935   1.358       .  S
C931        C932   1.404       .  A
C931        F937   1.356       .  S
C932        C933   1.405       .  A
C933        C934   1.408       .  A
C933        F936   1.357       .  S
C934        F938   1.357       .  S
C941        C942   1.404       .  A
C941        C946   1.408       .  A
C941        F959   1.358       .  S
C942        C943   1.403       .  A
C942        C947   1.490       .  S
C943        C944   1.402       .  A
C943        F948   1.358       .  S
C944        C945   1.416       .  A
C944        F960   1.358       .  S
C945        C946   1.417       .  A
C946        F949   1.358       .  S
C947        C950   1.405       .  A
C947        C954   1.407       .  A
C950        C951   1.405   1_655  A
C950        F955   1.358       .  S
C951        C952   1.410       .  A
C951        F957   1.358       .  S
C952        C953   1.406       .  A
C953        C954   1.405   1_455  A
C953        F956   1.357       .  S
C954        F958   1.357       .  S
C961        C962   1.405       .  A
C961        C966   1.391       .  A
C961        F979   1.358       .  S
C962        C963   1.404       .  A
C962        C967   1.467       .  S
C963        C964   1.393       .  A
C963        F968   1.358       .  S
C964        C965   1.401       .  A
C964        F980   1.358       .  S
C965        C966   1.401       .  A
C966        F969   1.358       .  S
C967        C970   1.405       .  A
C967        C974   1.402       .  A
C970        C971   1.394       .  A
C970        F975   1.358       .  S
C971        C972   1.404       .  A
C971        F977   1.358       .  S
C972        C973   1.408       .  A
C973        C974   1.391       .  A
C973        F976   1.359       .  S
C974        F978   1.358       .  S
C981        C982   1.404       .  A
C981        C986   1.394   1_655  A
C981        F999   1.358       .  S
C982        C983   1.404       .  A
C982        C987   1.465       .  S
C983        C984   1.391   1_655  A
C983        F988   1.358       .  S
C984        C985   1.400       .  A
C984       F1000   1.358       .  S
C985        C986   1.402       .  A
C986        F989   1.358       .  S
C987        C990   1.403       .  A
C987        C994   1.402       .  A
C990        C991   1.394       .  A
C990        F995   1.358       .  S
C991        C992   1.408       .  A
C991        F997   1.358       .  S
C992        C993   1.405       .  A
C993        C994   1.392       .  A
C993        F996   1.358       .  S
C994        F998   1.358       .  S
C1001      C1002   1.409       .  A
C1001      C1006   1.403       .  A
C1001      F1019   1.358       .  S
C1002      C1003   1.409       .  A
C1002      C2127   1.495       .  S
C1003      C1004   1.406       .  A
C1003      F1008   1.357       .  S
C1004      C1005   1.406       .  A
C1004      F1020   1.357       .  S
C1005      C1006   1.404       .  A
C1006      F1009   1.357       .  S
C1007      C1010   1.409       .  A
C1007      C1014   1.408       .  A
C1007      C2122   1.490       .  S
C1010      C1011   1.402   1_556  A
C1010      F1015   1.358       .  S
C1011      C1012   1.404       .  A
C1011      F1017   1.357       .  S
C1012      C1013   1.405       .  A
C1013      C1014   1.402   1_554  A
C1013      F1016   1.357       .  S
C1014      F1018   1.358       .  S
C1021      C1022   1.408       .  A
C1021      C1026   1.399       .  A
C1021      F1039   1.358       .  S
C1022      C1023   1.408       .  A
C1022      C1027   1.497       .  S
C1023      C1024   1.409       .  A
C1023      F1028   1.358       .  S
C1024      C1025   1.415       .  A
C1024      F1040   1.358       .  S
C1025      C1026   1.410       .  A
C1026      F1029   1.358       .  S
C1027      C1030   1.411       .  A
C1027      C1034   1.408       .  A
C1030      C1031   1.410       .  A
C1030      F1035   1.357       .  S
C1031      C1032   1.407       .  A
C1031      F1037   1.357       .  S
C1032      C1033   1.404       .  A
C1033      C1034   1.399       .  A
C1033      F1036   1.358       .  S
C1034      F1038   1.358       .  S
C1041      C1042   1.403       .  A
C1041      C1046   1.401       .  A
C1041      F1059   1.358       .  S
C1042      C1043   1.409       .  A
C1042      C1047   1.490       .  S
C1043      C1044   1.409       .  A
C1043      F1048   1.357       .  S
C1044      C1045   1.408       .  A
C1044      F1060   1.357       .  S
C1045      C1046   1.409       .  A
C1046      F1049   1.358       .  S
C1047      C1050   1.403       .  A
C1047      C1054   1.405       .  A
C1050      C1051   1.406       .  A
C1050      F1055   1.358       .  S
C1051      C1052   1.418       .  A
C1051      F1057   1.358       .  S
C1052      C1053   1.413       .  A
C1053      C1054   1.404       .  A
C1053      F1056   1.358       .  S
C1054      F1058   1.358       .  S
C1061      C1062   1.401       .  A
C1061      C1066   1.396       .  A
C1061      F1079   1.358       .  S
C1062      C1063   1.400       .  A
C1062      C1067   1.460       .  S
C1063      C1064   1.392       .  A
C1063      F1068   1.358       .  S
C1064      C1065   1.404       .  A
C1064      F1080   1.357       .  S
C1065      C1066   1.404       .  A
C1066      F1069   1.358       .  S
C1067      C1070   1.399       .  A
C1067      C1074   1.397       .  A
C1070      C1071   1.394       .  A
C1070      F1075   1.358       .  S
C1071      C1072   1.411       .  A
C1071      F1077   1.358       .  S
C1072      C1073   1.415       .  A
C1073      C1074   1.391       .  A
C1073      F1076   1.358       .  S
C1074      F1078   1.358       .  S
C1081      C1082   1.403       .  A
C1081      C1086   1.398       .  A
C1081      F1099   1.358       .  S
C1082      C1083   1.404       .  A
C1082      C1087   1.470       .  S
C1083      C1084   1.394       .  A
C1083      F1088   1.358       .  S
C1084      C1085   1.401       .  A
C1084      F1100   1.358       .  S
C1085      C1086   1.405       .  A
C1086      F1089   1.358   1_554  S
C1087      C1090   1.401       .  A
C1087      C1094   1.402       .  A
C1090      C1091   1.393       .  A
C1090      F1095   1.358       .  S
C1091      C1092   1.407       .  A
C1091      F1097   1.358       .  S
C1092      C1093   1.412       .  A
C1093      C1094   1.399       .  A
C1093      F1096   1.359       .  S
C1094      F1098   1.358       .  S
C1101      C1102   1.408       .  A
C1101      C1106   1.401       .  A
C1101      F1119   1.358       .  S
C1102      C1103   1.406       .  A
C1102      C1107   1.488       .  S
C1103      C1104   1.402       .  A
C1103      F1108   1.358       .  S
C1104      C1105   1.408       .  A
C1104      F1120   1.357       .  S
C1105      C1106   1.405       .  A
C1106      F1109   1.357       .  S
C1107      C1110   1.406       .  A
C1107      C1114   1.408       .  A
C1110      C1111   1.399       .  A
C1110      F1115   1.358       .  S
C1111      C1112   1.405       .  A
C1111      F1117   1.357       .  S
C1112      C1113   1.407       .  A
C1113      C1114   1.403       .  A
C1113      F1116   1.357       .  S
C1114      F1118   1.358       .  S
N1121      C1125   1.353       .  A
N1121      C1122   1.355       .  A
N1121      C2225   1.453       .  S
C1122      C1123   1.383       .  A
C1122      C2205   1.462       .  S
C1123      C1124   1.372       .  A
C1123      H1126   1.083       .  S
C1124      C1125   1.380       .  A
C1124      H1127   1.082       .  S
C1125      C2185   1.459       .  S
N1128      C1132   1.365       .  A
N1128      C1129   1.371       .  A
N1128      C2232   1.451       .  S
C1129      C1130   1.386       .  A
C1129      C2165   1.495       .  S
C1130      C1131   1.366       .  A
C1130      H1133   1.082       .  S
C1131      C1132   1.377       .  A
C1131      H1134   1.082       .  S
C1132      C2152   1.480       .  S
N1135      C1139   1.354       .  A
N1135      C1136   1.353       .  A
N1135      C2125   1.451       .  S
C1136      C1137   1.380       .  A
C1136      C2085   1.460       .  S
C1137      C1138   1.375       .  A
C1137      H1140   1.082       .  S
C1138      C1139   1.383       .  A
C1138      H1141   1.082       .  S
C1139      C2105   1.467       .  S
N1142      C1146   1.363       .  A
N1142      C1143   1.364       .  A
N1142      C2132   1.447       .  S
C1143      C1144   1.383       .  A
C1143      C2052   1.482       .  S
C1144      C1145   1.367       .  A
C1144      H1147   1.083       .  S
C1145      C1146   1.381       .  A
C1145      H1148   1.083       .  S
C1146      C2072   1.478       .  S
O1149     Ni1155   1.919       .  S
O1149      C1170   1.269       .  A
O1150     Ni1173   1.867       .  S
O1150      C1159   1.258   1_556  A
O1151     Ni1155   1.912       .  S
O1151     Ni1173   1.886       .  S
O1151     Ni1167   1.901       .  S
O1151      H1174   0.966       .  S
C1152      C2092   1.466       .  S
C1152      O1169   1.266       .  A
C1152      O1161   1.274       .  A
O1153     Ni1172   1.928       .  S
O1153      C1159   1.273   1_556  A
O1154     Ni1172   1.913       .  S
O1154      C1156   1.271       .  A
Ni1155     O1158   1.915       .  S
Ni1155     O1160   1.916       .  S
C1156      C2172   1.500       .  S
C1156      O1166   1.276       .  A
O1157     Ni1173   1.909       .  S
O1157      C1163   1.274       .  A
O1158      C1163   1.275       .  A
O1160      C1162   1.270       .  A
O1161     Ni1172   1.933       .  S
C1162      C2025   1.497       .  S
C1162      O1168   1.270       .  A
C1163      C2005   1.485       .  S
H1164      O1165   0.966       .  S
O1165     Ni1173   1.913       .  S
O1165     Ni1167   1.897       .  S
O1165     Ni1172   1.919       .  S
O1166     Ni1167   1.946       .  S
Ni1167     O1171   1.879       .  S
Ni1167     O1169   1.888       .  S
O1168     Ni1173   1.929       .  S
C1170      C1196   1.446       .  S
C1170      O1171   1.261       .  A
O1175     Ni1181   1.926       .  S
O1175      C1196   1.272       .  A
O1176     Ni1199   1.869       .  S
O1176      C1185   1.255       .  A
O1177     Ni1181   1.912       .  S
O1177     Ni1199   1.886       .  S
O1177     Ni1193   1.898       .  S
O1177      H1200   0.967       .  S
C1178      C1985   1.462       .  S
C1178      O1195   1.268       .  A
C1178      O1187   1.273       .  A
O1179     Ni1198   1.923       .  S
O1179      C1185   1.268       .  A
O1180     Ni1198   1.908       .  S
O1180      C1182   1.269       .  A
Ni1181     O1184   1.930       .  S
Ni1181     O1186   1.914       .  S
C1182      C1965   1.500       .  S
C1182      O1192   1.276       .  A
O1183     Ni1199   1.875       .  S
O1183      C1189   1.266       .  A
O1184      C1189   1.277       .  A
O1186      C1188   1.269       .  A
O1187     Ni1198   1.915       .  S
C1188      C2045   1.497       .  S
C1188      O1194   1.270       .  A
C1189      C2192   1.461       .  S
H1190      O1191   0.965       .  S
O1191     Ni1199   1.900       .  S
O1191     Ni1193   1.902       .  S
O1191     Ni1198   1.915       .  S
O1192     Ni1193   1.947       .  S
Ni1193     O1197   1.882       .  S
Ni1193     O1195   1.895       .  S
O1194     Ni1199   1.929       .  S
C1196      O1197   1.263       .  A
N1201      C1205   1.366       .  A
N1201      C1202   1.363       .  A
N1201      C1945   1.444       .  S
C1202      C1203   1.379       .  A
C1202      C1972   1.485       .  S
C1203      C1204   1.370       .  A
C1203      H1206   1.081       .  S
C1204      C1205   1.385       .  A
C1204      H1207   1.082       .  S
C1205      C1925   1.493       .  S
N1208      C1212   1.356       .  A
N1208      C1209   1.357       .  A
N1208      C1952   1.453       .  S
C1209      C1210   1.383   1_556  A
C1209      C2012   1.468       .  S
C1210      C1211   1.373       .  A
C1210      H1213   1.082       .  S
C1211      C1212   1.381   1_554  A
C1211      H1214   1.082       .  S
C1212      C1905   1.466       .  S
O1215     Ni1221   1.920       .  S
O1215      C1236   1.267       .  A
O1216     Ni1239   1.903       .  S
O1216      C1225   1.269       .  A
O1217     Ni1221   1.909       .  S
O1217     Ni1239   1.907       .  S
O1217     Ni1233   1.901       .  S
O1217      H1240   0.966       .  S
C1218      C1912   1.485       .  S
C1218      O1235   1.269       .  A
C1218      O1227   1.276       .  A
O1219     Ni1238   1.918       .  S
O1219      C1225   1.269       .  A
O1220     Ni1238   1.914       .  S
O1220      C1222   1.269       .  A
Ni1221     O1224   1.900       .  S
Ni1221     O1226   1.903       .  S
C1222      C1885   1.497       .  S
C1222      O1232   1.269       .  A
O1223     Ni1239   1.917       .  S
O1223      C1229   1.276       .  A
O1224      C1229   1.271       .  A
C1225      C1251   1.457       .  S
O1226      C1228   1.269       .  A
O1227     Ni1238   1.925       .  S
C1228      C1865   1.499       .  S
C1228      O1234   1.277       .  A
C1229      C2112   1.469       .  S
H1230      O1231   0.966       .  S
O1231     Ni1239   1.914       .  S
O1231     Ni1233   1.892       .  S
O1231     Ni1238   1.914       .  S
O1232     Ni1233   1.927       .  S
Ni1233     O1237   1.869       .  S
Ni1233     O1235   1.897       .  S
O1234     Ni1239   1.949       .  S
C1236      O1237   1.256       .  A
O1241     Ni1247   1.921       .  S
O1241      C1262   1.270       .  A
O1242     Ni1265   1.899       .  S
O1242      C1251   1.267       .  A
O1243     Ni1247   1.913       .  S
O1243     Ni1265   1.908       .  S
O1243     Ni1259   1.916       .  S
O1243      H1266   0.960       .  S
C1244      C1825   1.477       .  S
C1244      O1261   1.275       .  A
C1244      O1253   1.274       .  A
O1245     Ni1264   1.919       .  S
O1245      C1251   1.267       .  A
O1246     Ni1264   1.909       .  S
O1246      C1248   1.269       .  A
Ni1247     O1250   1.924       .  S
Ni1247     O1252   1.900       .  S
C1248      C2065   1.488       .  S
C1248      O1258   1.270       .  A
O1249     Ni1265   1.888       .  S
O1249      C1255   1.266       .  A
O1250      C1255   1.272       .  A
O1252      C1254   1.270       .  A
O1253     Ni1264   1.907       .  S
C1254      C1932   1.497       .  S
C1254      O1260   1.281       .  A
C1255      C1845   1.466       .  S
H1256      O1257   0.967       .  S
O1257     Ni1265   1.896       .  S
O1257     Ni1259   1.891       .  S
O1257     Ni1264   1.910       .  S
O1258     Ni1259   1.924       .  S
Ni1259     O1263   1.891       .  S
Ni1259     O1261   1.908       .  S
O1260     Ni1265   1.960       .  S
C1262      O1263   1.264       .  A
N1267      C1271   1.350       .  A
N1267      C1268   1.350       .  A
N1267      C1805   1.445       .  S
C1268      C1269   1.382       .  A
C1268      C1832   1.462       .  S
C1269      C1270   1.377       .  A
C1269      H1272   1.082       .  S
C1270      C1271   1.381       .  A
C1270      H1273   1.081       .  S
C1271      C1792   1.461       .  S
N1274      C1278   1.361       .  A
N1274      C1275   1.363       .  A
N1274      C1812   1.441       .  S
C1275      C1276   1.382       .  A
C1275      C1872   1.485       .  S
C1276      C1277   1.368       .  A
C1276      H1279   1.082       .  S
C1277      C1278   1.380       .  A
C1277      H1280   1.081       .  S
C1278      C1765   1.483       .  S
N1281      C1285   1.358   1_565  A
N1281      C1282   1.360       .  A
N1281      C1745   1.442       .  S
C1282      C1283   1.383       .  A
C1282      C1892   1.479       .  S
C1283      C1284   1.373   1_565  A
C1283      H1286   1.082       .  S
C1284      C1285   1.380       .  A
C1284      H1287   1.082       .  S
C1285      C1725   1.476       .  S
N1288      C1292   1.355   1_565  A
N1288      C1289   1.353       .  A
N1288      C1752   1.453       .  S
C1289      C1290   1.380       .  A
C1289      C1852   1.456       .  S
C1290      C1291   1.372   1_565  A
C1290      H1293   1.082       .  S
C1291      C1292   1.384       .  A
C1291      H1294   1.083       .  S
C1292      C1705   1.465       .  S
O1295     Ni1301   1.922       .  S
O1295      C1316   1.270       .  A
O1296     Ni1319   1.885       .  S
O1296      C1305   1.262       .  A
O1297     Ni1301   1.908       .  S
O1297     Ni1319   1.900       .  S
O1297     Ni1313   1.913       .  S
O1297      H1320   0.966       .  S
C1298      C1692   1.481       .  S
C1298      O1315   1.273       .  A
C1298      O1307   1.275       .  A
O1299     Ni1318   1.915       .  S
O1299      C1305   1.267       .  A
O1300     Ni1318   1.908       .  S
O1300      C1302   1.268       .  A
Ni1301     O1304   1.922       .  S
Ni1301     O1306   1.902       .  S
C1302      C1772   1.495       .  S
C1302      O1312   1.269       .  A
O1303     Ni1319   1.898       .  S
O1303      C1309   1.270       .  A
O1304      C1309   1.275       .  A
O1306      C1308   1.268       .  A
O1307     Ni1318   1.915       .  S
C1308      C1732   1.492       .  S
C1308      O1314   1.272       .  A
C1309      C1665   1.467       .  S
H1310      O1311   0.966       .  S
O1311     Ni1319   1.902       .  S
O1311     Ni1313   1.891       .  S
O1311     Ni1318   1.909       .  S
O1312     Ni1313   1.925       .  S
Ni1313     O1317   1.886       .  S
Ni1313     O1315   1.904       .  S
O1314     Ni1319   1.930       .  S
C1316      C1342   1.449       .  S
C1316      O1317   1.260       .  A
O1321     Ni1327   1.927       .  S
O1321      C1342   1.271       .  A
O1322     Ni1345   1.886       .  S
O1322      C1331   1.265       .  A
O1323     Ni1327   1.910       .  S
O1323     Ni1345   1.893       .  S
O1323     Ni1339   1.899       .  S
O1323      H1346   0.963       .  S
C1324      C1712   1.474       .  S
C1324      O1341   1.267       .  A
C1324      O1333   1.275       .  A
O1325     Ni1344   1.919       .  S
O1325      C1331   1.270       .  A
O1326     Ni1344   1.912       .  S
O1326      C1328   1.268       .  A
Ni1327     O1330   1.913       .  S
Ni1327     O1332   1.919       .  S
C1328      C1625   1.492       .  S
C1328      O1338   1.272       .  A
O1329     Ni1345   1.904       .  S
O1329      C1335   1.272       .  A
O1330      C1335   1.275       .  A
O1332      C1334   1.272       .  A
O1333     Ni1344   1.927       .  S
C1334      C1652   1.509       .  S
C1334      O1340   1.277       .  A
C1335      C1785   1.479       .  S
H1336      O1337   0.972       .  S
O1337     Ni1345   1.907       .  S
O1337     Ni1339   1.897       .  S
O1337     Ni1344   1.917       .  S
O1338     Ni1339   1.942       .  S
Ni1339     O1343   1.873       .  S
Ni1339     O1341   1.890       .  S
O1340     Ni1345   1.947       .  S
C1342      O1343   1.259       .  A
N1347      C1351   1.364       .  A
N1347      C1348   1.366       .  A
N1347      C1605   1.449       .  S
C1348      C1349   1.382       .  A
C1348      C1592   1.483       .  S
C1349      C1350   1.367       .  A
C1349      H1352   1.082       .  S
C1350      C1351   1.380       .  A
C1350      H1353   1.083       .  S
C1351      C1632   1.480       .  S
N1354      C1358   1.352       .  A
N1354      C1355   1.355       .  A
N1354      C1612   1.447       .  S
C1355      C1356   1.385   1_556  A
C1355      C1672   1.472       .  S
C1356      C1357   1.376       .  A
C1356      H1359   1.082       .  S
C1357      C1358   1.381   1_554  A
C1357      H1360   1.082       .  S
C1358      C1565   1.465       .  S
N1361      C1365   1.366       .  A
N1361      C1362   1.364   1_545  A
N1361      C1552   1.450       .  S
C1362      C1363   1.380       .  A
C1362      C2032   1.481       .  S
C1363      C1364   1.368   1_565  A
C1363      H1366   1.082       .  S
C1364      C1365   1.382       .  A
C1364      H1367   1.083       .  S
C1365      C1525   1.483       .  S
N1368      C1372   1.353   1_545  A
N1368      C1369   1.354       .  A
N1368      C1545   1.446       .  S
C1369      C1370   1.383       .  A
C1369      C1505   1.470       .  S
C1370      C1371   1.374   1_545  A
C1370      H1373   1.082       .  S
C1371      C1372   1.382       .  A
C1371      H1374   1.082       .  S
C1372      C1992   1.463       .  S
N1375      C1379   1.354       .  A
N1375      C1376   1.352       .  A
N1375      C1492   1.446       .  S
C1376      C1377   1.381       .  A
C1376      C1685   1.465       .  S
C1377      C1378   1.375       .  A
C1377      H1380   1.082       .  S
C1378      C1379   1.385       .  A
C1378      H1381   1.082       .  S
C1379      C1465   1.470       .  S
N1382      C1386   1.369       .  A
N1382      C1383   1.367       .  A
N1382      C1485   1.449       .  S
C1383      C1384   1.381       .  A
C1383      C1445   1.490       .  S
C1384      C1385   1.371       .  A
C1384      H1387   1.083       .  S
C1385      C1386   1.382       .  A
C1385      H1388   1.083       .  S
C1386      C1645   1.493       .  S
O1389     Ni1395   1.921       .  S
O1389      C1410   1.269       .  A
O1390     Ni1413   1.874       .  S
O1390      C1399   1.259       .  A
O1391     Ni1395   1.913       .  S
O1391     Ni1413   1.894       .  S
O1391     Ni1407   1.906       .  S
O1391      H1414   0.960       .  S
C1392      C1572   1.477       .  S
C1392      O1409   1.269       .  A
C1392      O1401   1.275       .  A
O1393     Ni1412   1.926       .  S
O1393      C1399   1.272       .  A
O1394     Ni1412   1.913       .  S
O1394      C1396   1.270       .  A
Ni1395     O1398   1.914       .  S
Ni1395     O1400   1.913       .  S
C1396      C1532   1.500       .  S
C1396      O1406   1.272       .  A
O1397     Ni1413   1.905       .  S
O1397      C1403   1.272       .  A
O1398      C1403   1.274       .  A
C1399      C1425   1.446       .  S
O1400      C1402   1.269       .  A
O1401     Ni1412   1.923       .  S
C1402      C2145   1.500       .  S
C1402      O1408   1.271       .  A
C1403      C1472   1.468       .  S
H1404      O1405   0.971       .  S
O1405     Ni1413   1.907       .  S
O1405     Ni1407   1.892       .  S
O1405     Ni1412   1.911       .  S
O1406     Ni1407   1.934       .  S
Ni1407     O1411   1.872       .  S
Ni1407     O1409   1.897       .  S
O1408     Ni1413   1.930       .  S
C1410      O1411   1.257       .  A
O1415     Ni1421   1.925       .  S
O1415      C1436   1.271       .  A
O1416     Ni1439   1.872       .  S
O1416      C1425   1.258       .  A
O1417     Ni1421   1.915       .  S
O1417     Ni1439   1.892       .  S
O1417     Ni1433   1.904       .  S
O1417      H1440   0.967       .  S
C1418      C2212   1.467       .  S
C1418      O1435   1.268       .  A
C1418      O1427   1.276       .  A
O1419     Ni1438   1.928       .  S
O1419      C1425   1.272       .  A
O1420     Ni1438   1.923       .  S
O1420      C1422   1.272       .  A
Ni1421     O1424   1.924       .  S
Ni1421     O1426   1.917       .  S
C1422      C1452   1.502       .  S
C1422      O1432   1.269       .  A
O1423     Ni1439   1.901       .  S
O1423      C1429   1.270       .  A
O1424      C1429   1.276       .  A
O1426      C1428   1.270       .  A
O1427     Ni1438   1.926       .  S
C1428      C1585   1.495       .  S
C1428      O1434   1.271       .  A
C1429      C1512   1.483       .  S
H1430      O1431   0.966       .  S
O1431     Ni1439   1.904       .  S
O1431     Ni1433   1.895       .  S
O1431     Ni1438   1.918       .  S
O1432     Ni1433   1.927       .  S
Ni1433     O1437   1.874       .  S
Ni1433     O1435   1.893       .  S
O1434     Ni1439   1.928       .  S
C1436      O1437   1.258       .  A
C1441      C1442   1.405       .  A
C1441      C1446   1.399       .  A
C1441      F1459   1.358       .  S
C1442      C1443   1.410       .  A
C1442      C1447   1.495       .  S
C1443      C1444   1.412       .  A
C1443      F1448   1.358       .  S
C1444      C1445   1.409       .  A
C1444      F1460   1.357       .  S
C1445      C1446   1.406       .  A
C1446      F1449   1.358       .  S
C1447      C1450   1.408       .  A
C1447      C1454   1.404       .  A
C1450      C1451   1.403       .  A
C1450      F1455   1.358       .  S
C1451      C1452   1.411       .  A
C1451      F1457   1.358       .  S
C1452      C1453   1.418       .  A
C1453      C1454   1.407       .  A
C1453      F1456   1.358       .  S
C1454      F1458   1.358       .  S
C1461      C1462   1.405       .  A
C1461      C1466   1.396       .  A
C1461      F1479   1.358       .  S
C1462      C1463   1.401       .  A
C1462      C1467   1.468       .  S
C1463      C1464   1.392       .  A
C1463      F1468   1.358       .  S
C1464      C1465   1.405       .  A
C1464      F1480   1.358       .  S
C1465      C1466   1.404       .  A
C1466      F1469   1.358       .  S
C1467      C1470   1.402       .  A
C1467      C1474   1.403       .  A
C1470      C1471   1.393       .  A
C1470      F1475   1.358       .  S
C1471      C1472   1.406       .  A
C1471      F1477   1.358       .  S
C1472      C1473   1.407       .  A
C1473      C1474   1.395       .  A
C1473      F1476   1.358       .  S
C1474      F1478   1.358       .  S
C1481      C1482   1.407       .  A
C1481      C1486   1.402       .  A
C1481      F1499   1.358       .  S
C1482      C1483   1.407       .  A
C1483      C1484   1.405       .  A
C1483      F1488   1.358       .  S
C1484      C1485   1.409       .  A
C1484      F1500   1.357       .  S
C1485      C1486   1.408       .  A
C1486      F1489   1.356       .  S
C1487      C1490   1.407       .  A
C1487      C1494   1.405       .  A
C1490      C1491   1.403       .  A
C1490      F1495   1.357       .  S
C1491      C1492   1.406       .  A
C1491      F1497   1.357       .  S
C1492      C1493   1.406       .  A
C1493      C1494   1.400       .  A
C1493      F1496   1.357       .  S
C1494      F1498   1.358       .  S
C1501      C1502   1.405       .  A
C1501      C1506   1.395       .  A
C1501      F1519   1.358       .  S
C1502      C1503   1.405       .  A
C1502      C1507   1.473       .  S
C1503      C1504   1.393       .  A
C1503      F1508   1.358       .  S
C1504      C1505   1.403       .  A
C1504      F1520   1.358       .  S
C1505      C1506   1.405       .  A
C1506      F1509   1.357       .  S
C1507      C1510   1.402       .  A
C1507      C1514   1.402       .  A
C1510      C1511   1.396       .  A
C1510      F1515   1.358       .  S
C1511      C1512   1.413       .  A
C1511      F1517   1.358       .  S
C1512      C1513   1.411       .  A
C1513      C1514   1.394       .  A
C1513      F1516   1.358       .  S
C1514      F1518   1.358       .  S
C1521      C1522   1.403       .  A
C1521      C1526   1.400       .  A
C1521      F1539   1.358       .  S
C1522      C1523   1.408       .  A
C1522      C1527   1.487       .  S
C1523      C1524   1.408       .  A
C1523      F1528   1.357       .  S
C1524      C1525   1.407       .  A
C1524      F1540   1.358       .  S
C1525      C1526   1.407       .  A
C1526      F1529   1.358       .  S
C1527      C1530   1.402       .  A
C1527      C1534   1.405       .  A
C1530      C1531   1.404       .  A
C1530      F1535   1.358       .  S
C1531      C1532   1.416       .  A
C1531      F1537   1.358       .  S
C1532      C1533   1.413       .  A
C1533      C1534   1.403       .  A
C1533      F1536   1.357       .  S
C1534      F1538   1.358       .  S
C1541      C1542   1.408   1_565  A
C1541      C1546   1.403       .  A
C1541      F1559   1.358       .  S
C1542      C1543   1.407       .  A
C1543      C1544   1.402       .  A
C1543      F1548   1.358       .  S
C1544      C1545   1.405       .  A
C1544      F1560   1.357       .  S
C1545      C1546   1.406   1_545  A
C1546      F1549   1.357       .  S
C1547      C1550   1.409       .  A
C1547      C1554   1.407   1_545  A
C1550      C1551   1.407       .  A
C1550      F1555   1.357       .  S
C1551      C1552   1.409   1_554  A
C1551      F1557   1.357   1_554  S
C1552      C1553   1.408   1_546  A
C1553      C1554   1.402       .  A
C1553      F1556   1.356   1_554  S
C1554      F1558   1.358       .  S
C1561      C1562   1.404       .  A
C1561      C1566   1.396       .  A
C1561      F1579   1.358       .  S
C1562      C1563   1.401       .  A
C1562      C1567   1.464       .  S
C1563      C1564   1.390       .  A
C1563      F1568   1.358       .  S
C1564      C1565   1.403       .  A
C1564      F1580   1.357       .  S
C1565      C1566   1.403       .  A
C1566      F1569   1.358   1_556  S
C1567      C1570   1.400       .  A
C1567      C1574   1.400       .  A
C1570      C1571   1.396       .  A
C1570      F1575   1.358   1_556  S
C1571      C1572   1.412       .  A
C1571      F1577   1.358       .  S
C1572      C1573   1.410       .  A
C1573      C1574   1.392       .  A
C1573      F1576   1.358       .  S
C1574      F1578   1.358       .  S
C1581      C1582   1.407       .  A
C1581      C1586   1.405       .  A
C1581      F1599   1.358       .  S
C1582      C1583   1.400       .  A
C1582      C1587   1.484       .  S
C1583      C1584   1.400       .  A
C1583      F1588   1.357       .  S
C1584      C1585   1.413       .  A
C1584      F1600   1.357       .  S
C1585      C1586   1.413       .  A
C1586      F1589   1.358       .  S
C1587      C1590   1.402       .  A
C1587      C1594   1.408       .  A
C1590      C1591   1.399       .  A
C1590      F1595   1.358       .  S
C1591      C1592   1.409       .  A
C1591      F1597   1.358       .  S
C1592      C1593   1.405       .  A
C1593      C1594   1.405       .  A
C1593      F1596   1.357       .  S
C1594      F1598   1.357       .  S
C1601      C1602   1.407       .  A
C1601      C1606   1.403       .  A
C1601      F1619   1.358       .  S
C1602      C1603   1.407       .  A
C1602      C1607   1.491       .  S
C1603      C1604   1.404       .  A
C1603      F1608   1.358       .  S
C1604      C1605   1.408       .  A
C1604      F1620   1.356       .  S
C1605      C1606   1.408       .  A
C1606      F1609   1.357       .  S
C1607      C1610   1.407       .  A
C1607      C1614   1.409       .  A
C1610      C1611   1.402       .  A
C1610      F1615   1.358       .  S
C1611      C1612   1.406       .  A
C1611      F1617   1.357       .  S
C1612      C1613   1.405       .  A
C1613      C1614   1.404       .  A
C1613      F1616   1.357       .  S
C1614      F1618   1.357       .  S
C1621      C1622   1.406       .  A
C1621      C1626   1.402       .  A
C1621      F1639   1.358       .  S
C1622      C1623   1.402       .  A
C1622      C1627   1.485       .  S
C1623      C1624   1.404       .  A
C1623      F1628   1.357       .  S
C1624      C1625   1.413       .  A
C1624      F1640   1.358       .  S
C1625      C1626   1.410       .  A
C1626      F1629   1.358       .  S
C1627      C1630   1.403       .  A
C1627      C1634   1.408       .  A
C1630      C1631   1.397       .  A
C1630      F1635   1.358       .  S
C1631      C1632   1.406       .  A
C1631      F1637   1.358       .  S
C1632      C1633   1.406       .  A
C1633      C1634   1.407       .  A
C1633      F1636   1.358       .  S
C1634      F1638   1.357       .  S
C1641      C1642   1.410       .  A
C1641      C1646   1.409   1_655  A
C1641      F1659   1.357       .  S
C1642      C1643   1.407       .  A
C1642      C1647   1.499       .  S
C1643      C1644   1.405   1_655  A
C1643      F1648   1.358       .  S
C1644      C1645   1.410       .  A
C1644      F1660   1.358       .  S
C1645      C1646   1.406       .  A
C1646      F1649   1.357       .  S
C1647      C1650   1.407       .  A
C1647      C1654   1.405       .  A
C1650      C1651   1.410       .  A
C1650      F1655   1.357       .  S
C1651      C1652   1.415       .  A
C1651      F1657   1.357       .  S
C1652      C1653   1.417       .  A
C1653      C1654   1.405       .  A
C1653      F1656   1.358       .  S
C1654      F1658   1.358       .  S
C1661      C1662   1.403       .  A
C1661      C1666   1.395       .  A
C1661      F1679   1.358       .  S
C1662      C1663   1.403       .  A
C1662      C1667   1.468       .  S
C1663      C1664   1.394       .  A
C1663      F1668   1.358       .  S
C1664      C1665   1.404       .  A
C1664      F1680   1.358       .  S
C1665      C1666   1.408       .  A
C1666      F1669   1.359       .  S
C1667      C1670   1.402       .  A
C1667      C1674   1.403       .  A
C1670      C1671   1.394   1_556  A
C1670      F1675   1.358   1_556  S
C1671      C1672   1.406   1_554  A
C1671      F1677   1.358       .  S
C1672      C1673   1.405       .  A
C1673      C1674   1.394       .  A
C1673      F1676   1.357       .  S
C1674      F1678   1.358       .  S
C1681      C1682   1.400       .  A
C1681      C1686   1.394   1_655  A
C1681      F1699   1.358       .  S
C1682      C1683   1.403       .  A
C1682      C1687   1.462       .  S
C1683      C1684   1.393       .  A
C1683      F1688   1.358       .  S
C1684      C1685   1.401   1_655  A
C1684      F1700   1.358       .  S
C1685      C1686   1.406       .  A
C1686      F1689   1.357       .  S
C1687      C1690   1.398       .  A
C1687      C1694   1.399       .  A
C1690      C1691   1.393       .  A
C1690      F1695   1.359       .  S
C1691      C1692   1.414       .  A
C1691      F1697   1.358       .  S
C1692      C1693   1.413       .  A
C1693      C1694   1.394       .  A
C1693      F1696   1.358       .  S
C1694      F1698   1.358       .  S
C1701      C1702   1.401       .  A
C1701      C1706   1.390       .  A
C1701      F1719   1.358       .  S
C1702      C1703   1.403       .  A
C1702      C1707   1.463       .  S
C1703      C1704   1.395       .  A
C1703      F1708   1.358       .  S
C1704      C1705   1.404       .  A
C1704      F1720   1.358       .  S
C1705      C1706   1.404       .  A
C1706      F1709   1.358       .  S
C1707      C1710   1.400       .  A
C1707      C1714   1.401       .  A
C1710      C1711   1.394       .  A
C1710      F1715   1.358       .  S
C1711      C1712   1.411       .  A
C1711      F1717   1.358       .  S
C1712      C1713   1.409       .  A
C1713      C1714   1.391       .  A
C1713      F1716   1.358       .  S
C1714      F1718   1.359       .  S
C1721      C1722   1.409       .  A
C1721      C1726   1.401       .  A
C1721      F1739   1.358       .  S
C1722      C1723   1.407       .  A
C1722      C1727   1.487       .  S
C1723      C1724   1.399       .  A
C1723      F1728   1.358       .  S
C1724      C1725   1.404       .  A
C1724      F1740   1.357       .  S
C1725      C1726   1.404       .  A
C1726      F1729   1.358       .  S
C1727      C1730   1.406       .  A
C1727      C1734   1.405       .  A
C1730      C1731   1.402       .  A
C1730      F1735   1.358       .  S
C1731      C1732   1.412       .  A
C1731      F1737   1.358       .  S
C1732      C1733   1.413       .  A
C1733      C1734   1.397       .  A
C1733      F1736   1.358       .  S
C1734      F1738   1.358       .  S
C1741      C1742   1.407   1_545  A
C1741      C1746   1.398   1_554  A
C1741      F1759   1.358       .  S
C1742      C1743   1.412       .  A
C1743      C1744   1.407   1_554  A
C1743      F1748   1.357       .  S
C1744      C1745   1.404       .  A
C1744      F1760   1.357       .  S
C1745      C1746   1.403   1_565  A
C1746      F1749   1.355       .  S
C1747      C1750   1.411   1_565  A
C1747      C1754   1.409       .  A
C1750      C1751   1.406       .  A
C1750      F1755   1.357       .  S
C1751      C1752   1.406   1_545  A
C1751      F1757   1.357       .  S
C1752      C1753   1.409       .  A
C1753      C1754   1.404       .  A
C1753      F1756   1.356       .  S
C1754      F1758   1.358       .  S
C1761      C1762   1.404       .  A
C1761      C1766   1.395       .  A
C1761      F1779   1.358       .  S
C1762      C1763   1.410       .  A
C1762      C1767   1.488       .  S
C1763      C1764   1.407       .  A
C1763      F1768   1.358       .  S
C1764      C1765   1.407       .  A
C1764      F1780   1.357       .  S
C1765      C1766   1.406       .  A
C1766      F1769   1.358       .  S
C1767      C1770   1.404       .  A
C1767      C1774   1.406       .  A
C1770      C1771   1.405       .  A
C1770      F1775   1.358       .  S
C1771      C1772   1.416       .  A
C1771      F1777   1.358       .  S
C1772      C1773   1.412       .  A
C1773      C1774   1.397       .  A
C1773      F1776   1.358       .  S
C1774      F1778   1.358       .  S
C1781      C1782   1.399       .  A
C1781      C1786   1.391       .  A
C1781      F1799   1.358       .  S
C1782      C1783   1.399       .  A
C1782      C1787   1.462       .  S
C1783      C1784   1.394       .  A
C1783      F1788   1.358       .  S
C1784      C1785   1.414       .  A
C1784      F1800   1.358       .  S
C1785      C1786   1.412       .  A
C1786      F1789   1.358       .  S
C1787      C1790   1.402       .  A
C1787      C1794   1.403       .  A
C1790      C1791   1.393       .  A
C1790      F1795   1.358       .  S
C1791      C1792   1.403       .  A
C1791      F1797   1.358       .  S
C1792      C1793   1.402       .  A
C1793      C1794   1.393       .  A
C1793      F1796   1.358       .  S
C1794      F1798   1.358       .  S
C1801      C1802   1.412       .  A
C1801      C1806   1.405       .  A
C1801      F1819   1.358       .  S
C1802      C1803   1.409       .  A
C1802      C1807   1.496       .  S
C1803      C1804   1.398       .  A
C1803      F1808   1.358       .  S
C1804      C1805   1.403       .  A
C1804      F1820   1.357       .  S
C1805      C1806   1.405       .  A
C1806      F1809   1.357       .  S
C1807      C1810   1.410       .  A
C1807      C1814   1.411       .  A
C1810      C1811   1.404       .  A
C1810      F1815   1.358       .  S
C1811      C1812   1.405       .  A
C1811      F1817   1.357       .  S
C1812      C1813   1.402       .  A
C1813      C1814   1.401       .  A
C1813      F1816   1.357       .  S
C1814      F1818   1.358       .  S
C1821      C1822   1.398       .  A
C1821      C1826   1.391       .  A
C1821      F1839   1.358       .  S
C1822      C1823   1.399       .  A
C1822      C1827   1.461       .  S
C1823      C1824   1.393       .  A
C1823      F1828   1.358       .  S
C1824      C1825   1.414       .  A
C1824      F1840   1.358       .  S
C1825      C1826   1.411       .  A
C1826      F1829   1.358       .  S
C1827      C1830   1.401       .  A
C1827      C1834   1.403       .  A
C1830      C1831   1.391       .  A
C1830      F1835   1.358       .  S
C1831      C1832   1.403       .  A
C1831      F1837   1.358       .  S
C1832      C1833   1.401       .  A
C1833      C1834   1.393       .  A
C1833      F1836   1.358       .  S
C1834      F1838   1.358       .  S
C1841      C1842   1.403       .  A
C1841      C1846   1.390       .  A
C1841      F1859   1.358       .  S
C1842      C1843   1.405       .  A
C1842      C1847   1.469       .  S
C1843      C1844   1.393       .  A
C1843      F1848   1.358       .  S
C1844      C1845   1.407       .  A
C1844      F1860   1.358       .  S
C1845      C1846   1.406       .  A
C1846      F1849   1.358       .  S
C1847      C1850   1.406       .  A
C1847      C1854   1.407       .  A
C1850      C1851   1.389       .  A
C1850      F1855   1.358       .  S
C1851      C1852   1.399       .  A
C1851      F1857   1.358       .  S
C1852      C1853   1.401       .  A
C1853      C1854   1.393       .  A
C1853      F1856   1.358       .  S
C1854      F1858   1.358       .  S
C1861      C1862   1.403       .  A
C1861      C1866   1.401       .  A
C1861      F1879   1.358       .  S
C1862      C1863   1.403       .  A
C1862      C1867   1.486       .  S
C1863      C1864   1.406       .  A
C1863      F1868   1.357       .  S
C1864      C1865   1.414       .  A
C1864      F1880   1.357       .  S
C1865      C1866   1.416       .  A
C1866      F1869   1.358       .  S
C1867      C1870   1.408       .  A
C1867      C1874   1.403       .  A
C1870      C1871   1.409       .  A
C1870      F1875   1.358       .  S
C1871      C1872   1.409       .  A
C1871      F1877   1.357       .  S
C1872      C1873   1.407       .  A
C1873      C1874   1.397       .  A
C1873      F1876   1.358       .  S
C1874      F1878   1.358       .  S
C1881      C1882   1.406       .  A
C1881      C1886   1.400       .  A
C1881      F1899   1.358       .  S
C1882      C1883   1.404       .  A
C1882      C1887   1.489       .  S
C1883      C1884   1.406       .  A
C1883      F1888   1.358       .  S
C1884      C1885   1.416       .  A
C1884      F1900   1.358       .  S
C1885      C1886   1.411       .  A
C1886      F1889   1.358       .  S
C1887      C1890   1.406       .  A
C1887      C1894   1.408       .  A
C1890      C1891   1.400       .  A
C1890      F1895   1.358       .  S
C1891      C1892   1.405       .  A
C1891      F1897   1.358       .  S
C1892      C1893   1.406       .  A
C1893      C1894   1.407       .  A
C1893      F1896   1.358       .  S
C1894      F1898   1.357       .  S
C1901      C1902   1.404       .  A
C1901      C1906   1.395       .  A
C1901      F1919   1.358       .  S
C1902      C1903   1.406       .  A
C1902      C1907   1.472       .  S
C1903      C1904   1.395       .  A
C1903      F1908   1.358       .  S
C1904      C1905   1.402       .  A
C1904      F1920   1.358       .  S
C1905      C1906   1.402       .  A
C1906      F1909   1.358       .  S
C1907      C1910   1.401       .  A
C1907      C1914   1.402       .  A
C1910      C1911   1.396       .  A
C1910      F1915   1.359       .  S
C1911      C1912   1.416       .  A
C1911      F1917   1.359       .  S
C1912      C1913   1.411       .  A
C1913      C1914   1.394       .  A
C1913      F1916   1.358       .  S
C1914      F1918   1.358       .  S
C1921      C1922   1.408       .  A
C1921      C1926   1.409       .  A
C1921      F1939   1.357       .  S
C1922      C1923   1.404       .  A
C1922      C1927   1.490       .  S
C1923      C1924   1.399       .  A
C1923      F1928   1.358       .  S
C1924      C1925   1.410       .  A
C1924      F1940   1.358       .  S
C1925      C1926   1.409       .  A
C1926      F1929   1.356       .  S
C1927      C1930   1.405       .  A
C1927      C1934   1.405       .  A
C1930      C1931   1.399       .  A
C1930      F1935   1.358       .  S
C1931      C1932   1.413       .  A
C1931      F1937   1.358       .  S
C1932      C1933   1.413       .  A
C1933      C1934   1.407       .  A
C1933      F1936   1.357       .  S
C1934      F1938   1.357       .  S
C1941      C1942   1.409       .  A
C1941      C1946   1.402       .  A
C1941      F1959   1.358       .  S
C1942      C1943   1.409       .  A
C1942      C1947   1.494       .  S
C1943      C1944   1.405       .  A
C1943      F1948   1.357       .  S
C1944      C1945   1.405       .  A
C1944      F1960   1.357       .  S
C1945      C1946   1.405       .  A
C1946      F1949   1.357       .  S
C1947      C1950   1.407       .  A
C1947      C1954   1.408       .  A
C1950      C1951   1.403       .  A
C1950      F1955   1.358       .  S
C1951      C1952   1.409       .  A
C1951      F1957   1.357       .  S
C1952      C1953   1.409       .  A
C1953      C1954   1.405       .  A
C1953      F1956   1.356       .  S
C1954      F1958   1.357       .  S
C1961      C1962   1.404       .  A
C1961      C1966   1.400       .  A
C1961      F1979   1.358       .  S
C1962      C1963   1.406       .  A
C1962      C1967   1.491       .  S
C1963      C1964   1.408       .  A
C1963      F1968   1.357       .  S
C1964      C1965   1.413       .  A
C1964      F1980   1.357       .  S
C1965      C1966   1.415       .  A
C1966      F1969   1.358       .  S
C1967      C1970   1.409       .  A
C1967      C1974   1.406       .  A
C1970      C1971   1.407       .  A
C1970      F1975   1.357       .  S
C1971      C1972   1.405       .  A
C1971      F1977   1.358       .  S
C1972      C1973   1.407       .  A
C1973      C1974   1.401       .  A
C1973      F1976   1.358       .  S
C1974      F1978   1.358       .  S
C1981      C1982   1.401       .  A
C1981      C1986   1.394       .  A
C1981      F1999   1.358       .  S
C1982      C1983   1.401       .  A
C1982      C1987   1.461       .  S
C1983      C1984   1.392       .  A
C1983      F1988   1.358       .  S
C1984      C1985   1.405       .  A
C1984      F2000   1.358       .  S
C1985      C1986   1.406       .  A
C1986      F1989   1.358       .  S
C1987      C1990   1.403       .  A
C1987      C1994   1.400       .  A
C1990      C1991   1.395       .  A
C1990      F1995   1.358       .  S
C1991      C1992   1.403       .  A
C1991      F1997   1.358       .  S
C1992      C1993   1.403       .  A
C1993      C1994   1.391       .  A
C1993      F1996   1.358       .  S
C1994      F1998   1.358       .  S
C2001      C2002   1.402       .  A
C2001      C2006   1.394       .  A
C2001      F2019   1.358       .  S
C2002      C2003   1.403       .  A
C2002      C2007   1.475       .  S
C2003      C2004   1.396       .  A
C2003      F2008   1.358   1_556  S
C2004      C2005   1.412       .  A
C2004      F2020   1.358       .  S
C2005      C2006   1.413       .  A
C2006      F2009   1.358       .  S
C2007      C2010   1.404       .  A
C2007      C2014   1.407       .  A
C2010      C2011   1.393       .  A
C2010      F2015   1.358       .  S
C2011      C2012   1.404       .  A
C2011      F2017   1.358   1_556  S
C2012      C2013   1.402       .  A
C2013      C2014   1.397       .  A
C2013      F2016   1.358       .  S
C2014      F2018   1.358       .  S
C2021      C2022   1.404       .  A
C2021      C2026   1.407       .  A
C2021      F2039   1.358       .  S
C2022      C2023   1.405       .  A
C2022      C2027   1.488       .  S
C2023      C2024   1.399       .  A
C2023      F2028   1.358       .  S
C2024      C2025   1.410       .  A
C2024      F2040   1.358       .  S
C2025      C2026   1.416       .  A
C2026      F2029   1.358       .  S
C2027      C2030   1.405       .  A
C2027      C2034   1.409       .  A
C2030      C2031   1.397       .  A
C2030      F2035   1.358       .  S
C2031      C2032   1.405       .  A
C2031      F2037   1.358       .  S
C2032      C2033   1.405       .  A
C2033      C2034   1.407       .  A
C2033      F2036   1.357       .  S
C2034      F2038   1.357       .  S
C2041      C2042   1.402       .  A
C2041      C2046   1.404       .  A
C2041      F2059   1.358       .  S
C2042      C2043   1.406       .  A
C2042      C2047   1.487       .  S
C2043      C2044   1.402       .  A
C2043      F2048   1.358       .  S
C2044      C2045   1.411       .  A
C2044      F2060   1.358       .  S
C2045      C2046   1.416       .  A
C2046      F2049   1.358       .  S
C2047      C2050   1.403       .  A
C2047      C2054   1.409       .  A
C2050      C2051   1.396       .  A
C2050      F2055   1.358       .  S
C2051      C2052   1.406       .  A
C2051      F2057   1.358       .  S
C2052      C2053   1.407       .  A
C2053      C2054   1.409       .  A
C2053      F2056   1.357       .  S
C2054      F2058   1.357       .  S
C2061      C2062   1.404       .  A
C2061      C2066   1.401       .  A
C2061      F2079   1.358       .  S
C2062      C2063   1.403       .  A
C2062      C2067   1.481       .  S
C2063      C2064   1.398       .  A
C2063      F2068   1.358       .  S
C2064      C2065   1.412       .  A
C2064      F2080   1.358       .  S
C2065      C2066   1.411       .  A
C2066      F2069   1.358       .  S
C2067      C2070   1.403       .  A
C2067      C2074   1.407       .  A
C2070      C2071   1.395   1_655  A
C2070      F2075   1.358       .  S
C2071      C2072   1.405       .  A
C2071      F2077   1.358       .  S
C2072      C2073   1.406       .  A
C2073      C2074   1.405   1_455  A
C2073      F2076   1.357       .  S
C2074      F2078   1.358       .  S
C2081      C2082   1.406       .  A
C2081      C2086   1.394       .  A
C2081      F2099   1.358       .  S
C2082      C2083   1.406       .  A
C2082      C2087   1.472       .  S
C2083      C2084   1.393       .  A
C2083      F2088   1.358       .  S
C2084      C2085   1.399       .  A
C2084      F2100   1.358       .  S
C2085      C2086   1.402       .  A
C2086      F2089   1.358       .  S
C2087      C2090   1.406       .  A
C2087      C2094   1.404       .  A
C2090      C2091   1.394       .  A
C2090      F2095   1.358       .  S
C2091      C2092   1.403       .  A
C2091      F2097   1.358       .  S
C2092      C2093   1.407       .  A
C2093      C2094   1.394       .  A
C2093      F2096   1.358       .  S
C2094      F2098   1.358       .  S
C2101      C2102   1.401       .  A
C2101      C2106   1.390   1_655  A
C2101      F2119   1.358       .  S
C2102      C2103   1.403       .  A
C2102      C2107   1.463       .  S
C2103      C2104   1.395   1_655  A
C2103      F2108   1.358       .  S
C2104      C2105   1.405       .  A
C2104      F2120   1.358       .  S
C2105      C2106   1.404       .  A
C2106      F2109   1.357       .  S
C2107      C2110   1.404       .  A
C2107      C2114   1.398       .  A
C2110      C2111   1.397       .  A
C2110      F2115   1.358       .  S
C2111      C2112   1.405       .  A
C2111      F2117   1.358       .  S
C2112      C2113   1.411       .  A
C2113      C2114   1.388       .  A
C2113      F2116   1.359       .  S
C2114      F2118   1.359       .  S
C2121      C2122   1.405       .  A
C2121      C2126   1.399       .  A
C2121      F2139   1.358       .  S
C2122      C2123   1.408       .  A
C2123      C2124   1.405       .  A
C2123      F2128   1.358       .  S
C2124      C2125   1.410       .  A
C2124      F2140   1.356       .  S
C2125      C2126   1.407       .  A
C2126      F2129   1.356       .  S
C2127      C2130   1.409       .  A
C2127      C2134   1.408       .  A
C2130      C2131   1.404       .  A
C2130      F2135   1.358       .  S
C2131      C2132   1.405       .  A
C2131      F2137   1.357       .  S
C2132      C2133   1.408       .  A
C2133      C2134   1.406       .  A
C2133      F2136   1.357       .  S
C2134      F2138   1.358       .  S
C2141      C2142   1.408       .  A
C2141      C2146   1.400       .  A
C2141      F2159   1.358       .  S
C2142      C2143   1.407       .  A
C2142      C2147   1.497       .  S
C2143      C2144   1.405       .  A
C2143      F2148   1.358       .  S
C2144      C2145   1.415       .  A
C2144      F2160   1.358       .  S
C2145      C2146   1.412       .  A
C2146      F2149   1.358       .  S
C2147      C2150   1.410       .  A
C2147      C2154   1.409       .  A
C2150      C2151   1.405       .  A
C2150      F2155   1.357       .  S
C2151      C2152   1.405       .  A
C2151      F2157   1.358       .  S
C2152      C2153   1.405       .  A
C2153      C2154   1.400       .  A
C2153      F2156   1.358       .  S
C2154      F2158   1.358       .  S
C2161      C2162   1.402       .  A
C2161      C2166   1.401       .  A
C2161      F2179   1.358       .  S
C2162      C2163   1.407       .  A
C2162      C2167   1.488       .  S
C2163      C2164   1.408       .  A
C2163      F2168   1.357       .  S
C2164      C2165   1.408       .  A
C2164      F2180   1.356       .  S
C2165      C2166   1.415       .  A
C2166      F2169   1.359       .  S
C2167      C2170   1.402       .  A
C2167      C2174   1.405       .  A
C2170      C2171   1.404       .  A
C2170      F2175   1.357       .  S
C2171      C2172   1.415       .  A
C2171      F2177   1.358       .  S
C2172      C2173   1.415       .  A
C2173      C2174   1.404       .  A
C2173      F2176   1.358       .  S
C2174      F2178   1.358       .  S
C2181      C2182   1.405       .  A
C2181      C2186   1.392       .  A
C2181      F2199   1.358       .  S
C2182      C2183   1.404       .  A
C2182      C2187   1.465       .  S
C2183      C2184   1.392       .  A
C2183      F2188   1.358       .  S
C2184      C2185   1.402       .  A
C2184      F2200   1.358       .  S
C2185      C2186   1.400       .  A
C2186      F2189   1.358       .  S
C2187      C2190   1.405       .  A
C2187      C2194   1.401       .  A
C2190      C2191   1.393       .  A
C2190      F2195   1.358       .  S
C2191      C2192   1.402       .  A
C2191      F2197   1.358       .  S
C2192      C2193   1.408       .  A
C2193      C2194   1.389       .  A
C2193      F2196   1.359       .  S
C2194      F2198   1.358       .  S
C2201      C2202   1.401       .  A
C2201      C2206   1.394       .  A
C2201      F2219   1.358       .  S
C2202      C2203   1.403       .  A
C2202      C2207   1.462       .  S
C2203      C2204   1.393       .  A
C2203      F2208   1.358       .  S
C2204      C2205   1.401       .  A
C2204      F2220   1.358       .  S
C2205      C2206   1.405       .  A
C2206      F2209   1.358       .  S
C2207      C2210   1.401       .  A
C2207      C2214   1.400       .  A
C2210      C2211   1.393       .  A
C2210      F2215   1.358       .  S
C2211      C2212   1.405       .  A
C2211      F2217   1.358       .  S
C2212      C2213   1.408       .  A
C2213      C2214   1.395       .  A
C2213      F2216   1.358       .  S
C2214      F2218   1.358       .  S
C2221      C2222   1.409       .  A
C2221      C2226   1.405       .  A
C2221      F2239   1.357       .  S
C2222      C2223   1.409       .  A
C2222      C2227   1.500       .  S
C2223      C2224   1.406       .  A
C2223      F2228   1.358       .  S
C2224      C2225   1.409       .  A
C2224      F2240   1.357       .  S
C2225      C2226   1.407       .  A
C2226      F2229   1.356       .  S
C2227      C2230   1.410       .  A
C2227      C2234   1.409       .  A
C2230      C2231   1.406       .  A
C2230      F2235   1.358       .  S
C2231      C2232   1.406       .  A
C2231      F2237   1.357       .  S
C2232      C2233   1.409       .  A
C2233      C2234   1.406       .  A
C2233      F2236   1.355       .  S
C2234      F2238   1.358       .  S
