geometry optimzed in LAMMPS
_audit_creation_date              2020-12-01 
_audit_creation_method            'lammps2cif' 
_symmetry_space_group_name_H-M    'P1' 
_symmetry_Int_Tables_number       1 
_symmetry_cell_setting            triclinic 
loop_ 
_symmetry_equiv_pos_as_xyz 
  x,y,z 
_cell_length_a                    36.01937978 
_cell_length_b                    36.018235707163655 
_cell_length_c                    37.86540752411022 
_cell_angle_alpha                 89.9891568386341 
_cell_angle_beta                  89.98869738095311 
_cell_angle_gamma                 120.06129471277951 
loop_ 
_atom_site_label 
_atom_site_type_symbol 
_atom_site_fract_x 
_atom_site_fract_y 
_atom_site_fract_z 
_atom_site_charge 
C1          C  0.33362675  0.16713571  0.03764446     0.30900
C2          C  0.33365659  0.16706673  0.46600338     0.30900
C3          C  0.35433834  0.14402609  0.02099588    -0.05300
C4          C  0.28981010  0.14638272  0.02094870    -0.06100
C5          C  0.35674974  0.21094627  0.02090582    -0.05900
C6          C  0.35518768  0.14381428  0.48421648    -0.05300
C7          C  0.28880976  0.14552021  0.48417018    -0.06000
C8          C  0.35694708  0.21192189  0.48412670    -0.05900
C9          C  0.37639764  0.12185793  0.47552952    -0.31300
N10         N  0.38708110  0.10906263  0.00602251     0.15200
C11         C  0.37360901  0.12237339  0.03386777    -0.31300
H12         H  0.37800980  0.11708941  0.06132367     0.17100
C13         C  0.24562708  0.12435210  0.47544193    -0.30300
N14         N  0.22209587  0.11369864  0.50591768     0.13900
C15         C  0.24884467  0.12714989  0.03378532    -0.30300
C16         C  0.37890236  0.25509889  0.47534925    -0.30600
N17         N  0.39168544  0.27865679  0.00580129     0.14400
H18         H  0.38530205  0.26841973  0.44895357     0.17000
C19         C  0.37839243  0.25192834  0.03369839    -0.30600
H20         H  0.38369289  0.26169361  0.06113482     0.17000
H21         H  0.23910366  0.12276683  0.06123136     0.17000
H22         H  0.38337392  0.11546625  0.44915819     0.17100
H23         H  0.23228424  0.11738609  0.44906146     0.17000
C24         C  0.33367938  0.16718318  0.21235771     0.30900
C25         C  0.33376216  0.16717261  0.28399880     0.30900
C26         C  0.35679112  0.14647513  0.22900801    -0.05300
C27         C  0.35443589  0.21100627  0.22904581    -0.06100
C28         C  0.28987383  0.14406503  0.22910237    -0.05900
C29         C  0.35701087  0.14563655  0.26578750    -0.05300
C30         C  0.35530574  0.21201609  0.26582426    -0.06000
C31         C  0.28890492  0.14387815  0.26588143    -0.05900
C32         C  0.37897859  0.12443886  0.27447657    -0.31300
N33         N  0.39177164  0.11375117  0.24398449     0.15200
C34         C  0.37844849  0.12720853  0.21613786    -0.31300
H35         H  0.38372981  0.12280306  0.18868247     0.17100
C36         C  0.37647924  0.25520220  0.27454528    -0.30300
N37         N  0.38712867  0.27872708  0.24406592     0.13900
C38         C  0.37366958  0.25197037  0.21620255    -0.30300
C39         C  0.24573059  0.12193230  0.27466408    -0.30600
N40         N  0.22216813  0.10914404  0.24421499     0.14400
H41         H  0.23241455  0.11554299  0.30106137     0.17000
C42         C  0.24889092  0.12242439  0.21631482    -0.30600
H43         H  0.23912128  0.11711843  0.18887976     0.17000
H44         H  0.37804887  0.26170502  0.18875485     0.17000
H45         H  0.38538077  0.11747517  0.30084871     0.17100
H46         H  0.38345233  0.26855182  0.30092361     0.17000
C47         C  0.16701803  0.33392316  0.03399878     0.30900
C48         C  0.16704861  0.33385486  0.46235770     0.30900
C49         C  0.14548629  0.35717486  0.01578562    -0.05300
C50         C  0.21186506  0.35547065  0.01583228    -0.06100
C51         C  0.14372854  0.28906815  0.01587518    -0.05900
C52         C  0.14633607  0.35696347  0.47900636    -0.05300
C53         C  0.21086510  0.35460853  0.47905377    -0.06000
C54         C  0.14392627  0.29004409  0.47909602    -0.05900
C55         C  0.12706553  0.37861624  0.46613441    -0.31300
N56         N  0.11359359  0.39192711  0.99397970     0.15200
C57         C  0.12427653  0.37913133  0.02447266    -0.31300
H58         H  0.11730048  0.38552314  0.05084397     0.17100
C59         C  0.25183055  0.37384125  0.46621747    -0.30300
N60         N  0.27857915  0.38729181  0.49408516     0.13900
C61         C  0.25504766  0.37663833  0.02456085    -0.30300
C62         C  0.12228340  0.24906208  0.46630312    -0.30600
N63         N  0.10898978  0.22233342  0.49420020     0.14400
H64         H  0.11698304  0.23929715  0.43886693     0.17000
C65         C  0.12177289  0.24589112  0.02465235    -0.30600
H66         H  0.11537253  0.23257003  0.05104806     0.17000
H67         H  0.26839019  0.38360368  0.05094126     0.17000
H68         H  0.12266521  0.38390058  0.43867880     0.17100
H69         H  0.26157186  0.37822434  0.43877113     0.17000
C70         C  0.16691259  0.33381735  0.21600327     0.30900
C71         C  0.16699560  0.33380693  0.28764435     0.30900
C72         C  0.14366460  0.35535407  0.23421459    -0.05300
C73         C  0.14536845  0.28897387  0.23417786    -0.06100
C74         C  0.21176988  0.35711119  0.23412053    -0.05900
C75         C  0.14388454  0.35451564  0.27099407    -0.05300
C76         C  0.14623826  0.28998380  0.27095632    -0.06000
C77         C  0.21080110  0.35692426  0.27089958    -0.05900
C78         C  0.12222723  0.37378223  0.28386429    -0.31300
N79         N  0.10890376  0.38723924  0.25601768     0.15200
C80         C  0.12169677  0.37655162  0.22552553    -0.31300
H81         H  0.11529423  0.38351501  0.19915346     0.17100
C82         C  0.12700505  0.24901981  0.28379973    -0.30300
N83         N  0.11354646  0.22226300  0.25593644     0.13900
C84         C  0.12419557  0.24578770  0.22545699    -0.30300
C85         C  0.25178404  0.37856489  0.28368704    -0.30600
N86         N  0.27850674  0.39184550  0.25578681     0.14400
H87         H  0.26155376  0.38387103  0.31112211     0.17000
C88         C  0.25494416  0.37905708  0.22533778    -0.30600
H89         H  0.26826009  0.38544661  0.19894042     0.17000
H90         H  0.11722292  0.23243790  0.19907868     0.17000
H91         H  0.11694593  0.37818771  0.31131961     0.17100
H92         H  0.12262612  0.23928535  0.31124742     0.17000
O93         O  0.05342478  0.48021285  0.02484124    -0.87400
C94         C  0.06877698  0.06553364  0.44588065     0.88600
Mg95       Mg  0.00458207  0.41332116  0.02284044     1.58100
O96         O  0.02050808  0.07376161  0.02501623    -0.87200
O97         O  0.07725988  0.03612878  0.05893950    -0.74500
C98         C  0.32421578  0.40960878  0.49140508     0.93700
O99         O  0.03614849  0.45932359  0.44092788    -0.74300
O100        O  0.34295982  0.38889015  0.48313845    -0.81800
Mg101      Mg  0.09173182  0.00477264  0.47698691     1.58000
C102        C  0.40938819  0.08575508  0.00871401     0.93600
O103        O  0.15596755  0.05152290  0.00170991    -0.80100
H104        H  0.02312311  0.08748105  0.07642641    -0.05400
C105        C  0.43540181  0.50407597  0.44587400     0.88500
O106        O  0.45905908  0.42338978  0.05883352    -0.74600
O107        O  0.07361778  0.05358300  0.47512395    -0.87300
O108        O  0.44921911  0.10512548  0.00168632    -0.80100
C109        C  0.08561754  0.17669445  0.49156411     0.93700
C110        C  0.17645921  0.09138145  0.00859797     0.93500
Mg111      Mg  0.40894372  0.49621772  0.02301531     1.58000
O112        O  0.34470754  0.44946686  0.49829466    -0.80100
O113        O  0.46452707  0.04166727  0.05907379    -0.74300
O114        O  0.10494424  0.15620893  0.49851521    -0.80200
O115        O  0.11200499  0.45472308  0.48295409    -0.81900
O116        O  0.39573037  0.34478128  0.00148832    -0.80200
C117        C  0.50377286  0.06889026  0.05429495     0.88000
O118        O  0.42705807  0.44740757  0.02487758    -0.87300
O119        O  0.44724960  0.02077694  0.47516034    -0.87400
O120        O  0.42341582  0.46486094  0.44106204    -0.74500
Mg121      Mg  0.08742173  0.09182342  0.02301270     1.58000
O122        O  0.04613700  0.15794270  0.48327331    -0.80900
H123        H  0.06452322  0.47755056  0.07624337    -0.05600
O124        O  0.48016692  0.42722798  0.47498501    -0.87100
H125        H  0.47755254  0.41351021  0.42357450    -0.05400
H126        H  0.41331555  0.43615386  0.07627997    -0.05600
C127        C  0.99690266  0.43210033  0.44570633     0.88000
C128        C  0.06527320  0.99691359  0.05412753     0.88500
C129        C  0.43189739  0.43545559  0.05412070     0.88600
H130        H  0.43615223  0.02343905  0.42375783    -0.05600
O131        O  0.04161452  0.07759854  0.44116800    -0.74600
Mg132      Mg  0.41325327  0.40916643  0.47698911     1.58000
H133        H  0.08735793  0.06483478  0.42372118    -0.05600
C134        C  0.09128679  0.41523486  0.49128819     0.93600
O135        O  0.45453841  0.34304737  0.01672716    -0.81800
C136        C  0.41505758  0.32429571  0.00843743     0.93600
O137        O  0.15771504  0.11210030  0.01686331    -0.81800
Mg138      Mg  0.49609258  0.08766847  0.47716107     1.58200
O139        O  0.05145599  0.39586478  0.49831610    -0.80100
O140        O  0.38867021  0.04626685  0.01704803    -0.81800
O141        O  0.02061783  0.44740746  0.22515597    -0.87400
C142        C  0.43529394  0.43204250  0.30410841     0.88600
Mg143      Mg  0.08750568  0.49625224  0.22716648     1.58100
O144        O  0.42708272  0.48033000  0.22497741    -0.87200
O145        O  0.46471278  0.42357386  0.19104849    -0.74500
C146        C  0.09122612  0.17662502  0.25862226     0.93700
O147        O  0.04149341  0.46466608  0.30907078    -0.74300
O148        O  0.11194155  0.15787782  0.26688935    -0.81800
Mg149      Mg  0.49605221  0.40908811  0.27300220     1.58000
C150        C  0.41508397  0.09144897  0.24129438     0.93600
O151        O  0.44930630  0.34485527  0.24826953    -0.80100
H152        H  0.41337560  0.47773073  0.17356585    -0.05400
C153        C  0.99674994  0.06542866  0.30413645     0.88500
O154        O  0.07744013  0.04178127  0.19117853    -0.74600
O155        O  0.44724378  0.42720239  0.27486459    -0.87300
O156        O  0.39571411  0.05161343  0.24830918    -0.80100
C157        C  0.32414450  0.41521513  0.25841846     0.93700
C158        C  0.40944917  0.32436510  0.24138029     0.93500
Mg159      Mg  0.00462281  0.09190212  0.22700120     1.58000
O160        O  0.05136905  0.15613486  0.25173309    -0.80100
O161        O  0.45918069  0.03632454  0.19093260    -0.74300
O162        O  0.34462655  0.39588863  0.25145372    -0.80200
O163        O  0.04610177  0.38881674  0.26703271    -0.81900
O164        O  0.15604851  0.10510175  0.24854706    -0.80200
C165        C  0.43195994  0.99707503  0.19570213     0.88000
O166        O  0.05343051  0.07378711  0.22513869    -0.87300
O167        O  0.48005704  0.05358305  0.27484743    -0.87400
O168        O  0.03596262  0.07741502  0.30895441    -0.74500
Mg169      Mg  0.40901551  0.41341094  0.22696991     1.58000
O170        O  0.34289825  0.45469361  0.26672028    -0.81900
H171        H  0.02329335  0.43631197  0.17375491    -0.05600
O172        O  0.07359326  0.02066024  0.27502555    -0.87100
H173        H  0.08729915  0.02325987  0.32643752    -0.05400
H174        H  0.06468405  0.08753305  0.17373674    -0.05600
C175        C  0.06871498  0.50391529  0.30430100     0.88000
C176        C  0.50392539  0.43556056  0.19586703     0.88500
C177        C  0.06538048  0.06894773  0.19589474     0.88600
H178        H  0.47738245  0.06467646  0.32624902    -0.05600
O179        O  0.42323477  0.45920942  0.30882427    -0.74600
Mg180      Mg  0.09165995  0.08757906  0.27303261     1.58000
H181        H  0.43599015  0.41345739  0.32626676    -0.05600
C182        C  0.08559146  0.40954139  0.25870783     0.93600
O183        O  0.15777647  0.04629619  0.23328197    -0.81800
C184        C  0.17653040  0.08577480  0.24158318     0.93600
O185        O  0.38873372  0.34311231  0.23311326    -0.81800
Mg186      Mg  0.41316912  0.00473799  0.27283585     1.58200
O187        O  0.10496070  0.44937620  0.25169061    -0.80100
O188        O  0.45457419  0.11217417  0.23297144    -0.81800
C189        C  0.16706038  0.33378697  0.32553441    -0.17600
C190        C  0.16710839  0.33375944  0.35681785     0.06500
C191        C  0.16711320  0.33376072  0.39318416     0.08300
C192        C  0.16708027  0.33379981  0.42446762    -0.18400
C193        C  0.16700181  0.33393079  0.07361275    -0.17600
C194        C  0.16697494  0.33389722  0.10595244     0.06500
C195        C  0.16692996  0.33385112  0.14404964     0.08300
C196        C  0.16689859  0.33382540  0.17638932    -0.18400
C197        C  0.33367244  0.16705899  0.42638943    -0.17600
C198        C  0.33369942  0.16709261  0.39404973     0.06500
C199        C  0.33374453  0.16713880  0.35595250     0.08300
C200        C  0.33377602  0.16716463  0.32361280    -0.18400
C201        C  0.33359546  0.16719126  0.07553450    -0.17600
C202        C  0.33356265  0.16723042  0.10681794     0.06500
C203        C  0.33356716  0.16723137  0.14318422     0.08300
C204        C  0.33361484  0.16720341  0.17446765    -0.18400
C205        C  0.33362676  0.16713571  0.53764445     0.30900
C206        C  0.33365660  0.16706672  0.96600339     0.30900
C207        C  0.35433828  0.14402605  0.52099585    -0.05300
C208        C  0.28981011  0.14638277  0.52094869    -0.06100
C209        C  0.35674974  0.21094626  0.52090580    -0.05900
C210        C  0.35518776  0.14381434  0.98421650    -0.05300
C211        C  0.28880975  0.14552015  0.98417020    -0.06000
C212        C  0.35694703  0.21192189  0.98412672    -0.05900
C213        C  0.37639771  0.12185797  0.97552951    -0.31300
N214        N  0.38708105  0.10906260  0.50602251     0.15200
C215        C  0.37360894  0.12237334  0.53386782    -0.31300
H216        H  0.37800971  0.11708945  0.56132342     0.17100
C217        C  0.24562705  0.12435210  0.97544193    -0.30300
N218        N  0.22209586  0.11369872  0.00591770     0.13900
C219        C  0.24884471  0.12714997  0.53378524    -0.30300
C220        C  0.37890230  0.25509891  0.97534923    -0.30600
N221        N  0.39168536  0.27865680  0.50580127     0.14400
H222        H  0.38530188  0.26841964  0.94895375     0.17000
C223        C  0.37839246  0.25192832  0.53369837    -0.30600
H224        H  0.38369301  0.26169356  0.56113479     0.17000
H225        H  0.23910365  0.12276694  0.56123158     0.17000
H226        H  0.38337389  0.11546624  0.94915824     0.17100
H227        H  0.23228422  0.11738611  0.94906158     0.17000
C228        C  0.33367942  0.16718313  0.71235776     0.30900
C229        C  0.33376223  0.16717259  0.78399886     0.30900
C230        C  0.35679115  0.14647511  0.72900808    -0.05300
C231        C  0.35443595  0.21100621  0.72904586    -0.06100
C232        C  0.28987391  0.14406498  0.72910244    -0.05900
C233        C  0.35701094  0.14563655  0.76578757    -0.05300
C234        C  0.35530574  0.21201607  0.76582431    -0.06000
C235        C  0.28890501  0.14387812  0.76588148    -0.05900
C236        C  0.37897865  0.12443881  0.77447673    -0.31300
N237        N  0.39177162  0.11375116  0.74398451     0.15200
C238        C  0.37844847  0.12720852  0.71613796    -0.31300
H239        H  0.38372982  0.12280304  0.68868239     0.17100
C240        C  0.37647910  0.25520220  0.77454528    -0.30300
N241        N  0.38712857  0.27872703  0.74406590     0.13900
C242        C  0.37366961  0.25197028  0.71620255    -0.30300
C243        C  0.24573067  0.12193238  0.77466411    -0.30600
N244        N  0.22216819  0.10914406  0.74421501     0.14400
H245        H  0.23241465  0.11554316  0.80106143     0.17000
C246        C  0.24889103  0.12242434  0.71631487    -0.30600
H247        H  0.23912143  0.11711838  0.68887977     0.17000
H248        H  0.37804890  0.26170485  0.68875487     0.17000
H249        H  0.38538078  0.11747517  0.80084849     0.17100
H250        H  0.38345219  0.26855189  0.80092361     0.17000
C251        C  0.16701812  0.33392315  0.53399878     0.30900
C252        C  0.16704863  0.33385482  0.96235766     0.30900
C253        C  0.14548642  0.35717497  0.51578572    -0.05300
C254        C  0.21186513  0.35547061  0.51583229    -0.06100
C255        C  0.14372855  0.28906815  0.51587513    -0.05900
C256        C  0.14633599  0.35696340  0.97900625    -0.05300
C257        C  0.21086510  0.35460851  0.97905376    -0.06000
C258        C  0.14392634  0.29004408  0.97909605    -0.05900
C259        C  0.12706561  0.37861639  0.96613433    -0.31300
N260        N  0.11359343  0.39192694  0.49397973     0.15200
C261        C  0.12427646  0.37913128  0.52447272    -0.31300
H262        H  0.11730030  0.38552304  0.55084401     0.17100
C263        C  0.25183060  0.37384121  0.96621744    -0.30300
N264        N  0.27857913  0.38729176  0.99408520     0.13900
C265        C  0.25504772  0.37663827  0.52456083    -0.30300
C266        C  0.12228355  0.24906211  0.96630323    -0.30600
N267        N  0.10898989  0.22233341  0.99420023     0.14400
H268        H  0.11698311  0.23929711  0.93886679     0.17000
C269        C  0.12177283  0.24589113  0.52465228    -0.30600
H270        H  0.11537251  0.23257004  0.55104803     0.17000
H271        H  0.26839032  0.38360360  0.55094126     0.17000
H272        H  0.12266532  0.38390084  0.93867873     0.17100
H273        H  0.26157189  0.37822430  0.93877132     0.17000
C274        C  0.16691263  0.33381737  0.71600323     0.30900
C275        C  0.16699558  0.33380696  0.78764430     0.30900
C276        C  0.14366462  0.35535411  0.73421456    -0.05300
C277        C  0.14536849  0.28897386  0.73417782    -0.06100
C278        C  0.21176992  0.35711123  0.73412053    -0.05900
C279        C  0.14388459  0.35451573  0.77099403    -0.05300
C280        C  0.14623820  0.28998380  0.77095628    -0.06000
C281        C  0.21080112  0.35692425  0.77089959    -0.05900
C282        C  0.12222717  0.37378220  0.78386422    -0.31300
N283        N  0.10890367  0.38723922  0.75601770     0.15200
C284        C  0.12169669  0.37655163  0.72552548    -0.31300
H285        H  0.11529418  0.38351492  0.69915364     0.17100
C286        C  0.12700495  0.24901980  0.78379967    -0.30300
N287        N  0.11354652  0.22226298  0.75593639     0.13900
C288        C  0.12419567  0.24578767  0.72545692    -0.30300
C289        C  0.25178406  0.37856479  0.78368706    -0.30600
N290        N  0.27850678  0.39184542  0.75578688     0.14400
H291        H  0.26155378  0.38387089  0.81112222     0.17000
C292        C  0.25494423  0.37905722  0.72533781    -0.30600
H293        H  0.26826017  0.38544692  0.69894053     0.17000
H294        H  0.11722303  0.23243789  0.69907870     0.17000
H295        H  0.11694577  0.37818762  0.81131983     0.17100
H296        H  0.12262592  0.23928533  0.81124737     0.17000
O297        O  0.05342466  0.48021285  0.52484122    -0.87400
C298        C  0.06877692  0.06553358  0.94588061     0.88600
Mg299      Mg  0.00458207  0.41332114  0.52284038     1.58100
O300        O  0.02050809  0.07376149  0.52501624    -0.87200
O301        O  0.07725978  0.03612877  0.55893965    -0.74500
C302        C  0.32421577  0.40960874  0.99140515     0.93700
O303        O  0.03614860  0.45932352  0.94092802    -0.74300
O304        O  0.34295980  0.38889012  0.98313850    -0.81800
Mg305      Mg  0.09173188  0.00477264  0.97698696     1.58000
C306        C  0.40938811  0.08575504  0.50871409     0.93600
O307        O  0.15596749  0.05152288  0.50170985    -0.80100
H308        H  0.02312325  0.08748108  0.57642647    -0.05400
C309        C  0.43540175  0.50407594  0.94587407     0.88500
O310        O  0.45905920  0.42338978  0.55883345    -0.74600
O311        O  0.07361771  0.05358295  0.97512394    -0.87300
O312        O  0.44921903  0.10512538  0.50168630    -0.80100
C313        C  0.08561760  0.17669446  0.99156408     0.93700
C314        C  0.17645922  0.09138142  0.50859793     0.93500
Mg315      Mg  0.40894369  0.49621770  0.52301533     1.58000
O316        O  0.34470752  0.44946683  0.99829466    -0.80100
O317        O  0.46452702  0.04166730  0.55907383    -0.74300
O318        O  0.10494423  0.15620889  0.99851519    -0.80200
O319        O  0.11200494  0.45472314  0.98295426    -0.81900
O320        O  0.39573043  0.34478141  0.50148845    -0.80200
C321        C  0.50377278  0.06889022  0.55429492     0.88000
O322        O  0.42705818  0.44740761  0.52487750    -0.87300
O323        O  0.44724950  0.02077689  0.97516034    -0.87400
O324        O  0.42341565  0.46486090  0.94106206    -0.74500
Mg325      Mg  0.08742178  0.09182341  0.52301270     1.58000
O326        O  0.04613705  0.15794274  0.98327322    -0.80900
H327        H  0.06452298  0.47755032  0.57624335    -0.05600
O328        O  0.48016693  0.42722794  0.97498506    -0.87100
H329        H  0.47755256  0.41351005  0.92357435    -0.05400
H330        H  0.41331580  0.43615412  0.57628003    -0.05600
C331        C  0.99690279  0.43210033  0.94570647     0.88000
C332        C  0.06527309  0.99691360  0.55412752     0.88500
C333        C  0.43189760  0.43545569  0.55412060     0.88600
H334        H  0.43615209  0.02343910  0.92375774    -0.05600
O335        O  0.04161449  0.07759851  0.94116793    -0.74600
Mg336      Mg  0.41325321  0.40916640  0.97698918     1.58000
H337        H  0.08735790  0.06483467  0.92372114    -0.05600
C338        C  0.09128681  0.41523491  0.99128828     0.93600
O339        O  0.45453843  0.34304733  0.51672711    -0.81800
C340        C  0.41505758  0.32429575  0.50843744     0.93600
O341        O  0.15771511  0.11210031  0.51686328    -0.81800
Mg342      Mg  0.49609253  0.08766847  0.97716103     1.58200
O343        O  0.05145598  0.39586469  0.99831610    -0.80100
O344        O  0.38867012  0.04626684  0.51704819    -0.81800
O345        O  0.02061791  0.44740743  0.72515592    -0.87400
C346        C  0.43529400  0.43204245  0.80410846     0.88600
Mg347      Mg  0.08750570  0.49625232  0.72716644     1.58100
O348        O  0.42708283  0.48032996  0.72497736    -0.87200
O349        O  0.46471284  0.42357404  0.69104857    -0.74500
C350        C  0.09122618  0.17662498  0.75862221     0.93700
O351        O  0.04149345  0.46466603  0.80907071    -0.74300
O352        O  0.11194162  0.15787778  0.76688929    -0.81800
Mg353      Mg  0.49605215  0.40908809  0.77300217     1.58000
C354        C  0.41508392  0.09144895  0.74129435     0.93600
O355        O  0.44930623  0.34485520  0.74826949    -0.80100
H356        H  0.41337562  0.47773060  0.67356575    -0.05400
C357        C  0.99674995  0.06542860  0.80413640     0.88500
O358        O  0.07744020  0.04178124  0.69117847    -0.74600
O359        O  0.44724374  0.42720231  0.77486457    -0.87300
O360        O  0.39571407  0.05161345  0.74830918    -0.80100
C361        C  0.32414454  0.41521508  0.75841852     0.93700
C362        C  0.40944910  0.32436505  0.74138022     0.93500
Mg363      Mg  0.00462278  0.09190207  0.72700123     1.58000
O364        O  0.05136910  0.15613482  0.75173306    -0.80100
O365        O  0.45918086  0.03632458  0.69093251    -0.74300
O366        O  0.34462663  0.39588863  0.75145371    -0.80200
O367        O  0.04610174  0.38881683  0.76703286    -0.81900
O368        O  0.15604849  0.10510169  0.74854697    -0.80200
C369        C  0.43196009  0.99707509  0.69570210     0.88000
O370        O  0.05343057  0.07378708  0.72513864    -0.87300
O371        O  0.48005708  0.05358295  0.77484739    -0.87400
O372        O  0.03596264  0.07741502  0.80895437    -0.74500
Mg373      Mg  0.40901556  0.41341094  0.72696988     1.58000
O374        O  0.34289825  0.45469357  0.76672027    -0.81900
H375        H  0.02329311  0.43631188  0.67375495    -0.05600
O376        O  0.07359315  0.02066019  0.77502549    -0.87100
H377        H  0.08729901  0.02325985  0.82643746    -0.05400
H378        H  0.06468420  0.08753316  0.67373656    -0.05600
C379        C  0.06871490  0.50391529  0.80430094     0.88000
C380        C  0.50392545  0.43556062  0.69586698     0.88500
C381        C  0.06538058  0.06894768  0.69589472     0.88600
H382        H  0.47738238  0.06467637  0.82624896    -0.05600
O383        O  0.42323486  0.45920943  0.80882429    -0.74600
Mg384      Mg  0.09165997  0.08757902  0.77303257     1.58000
H385        H  0.43599034  0.41345759  0.82626663    -0.05600
C386        C  0.08559139  0.40954144  0.75870786     0.93600
O387        O  0.15777650  0.04629616  0.73328192    -0.81800
C388        C  0.17653042  0.08577477  0.74158315     0.93600
O389        O  0.38873370  0.34311229  0.73311316    -0.81800
Mg390      Mg  0.41316917  0.00473798  0.77283579     1.58200
O391        O  0.10496062  0.44937621  0.75169050    -0.80100
O392        O  0.45457414  0.11217416  0.73297139    -0.81800
C393        C  0.16706031  0.33378703  0.82553436    -0.17600
C394        C  0.16710833  0.33375961  0.85681781     0.06500
C395        C  0.16711312  0.33376072  0.89318412     0.08300
C396        C  0.16708031  0.33379972  0.92446758    -0.18400
C397        C  0.16700188  0.33393072  0.57361272    -0.17600
C398        C  0.16697484  0.33389716  0.60595239     0.06500
C399        C  0.16692986  0.33385107  0.64404959     0.08300
C400        C  0.16689862  0.33382536  0.67638927    -0.18400
C401        C  0.33367248  0.16705895  0.92638942    -0.17600
C402        C  0.33369938  0.16709256  0.89404972     0.06500
C403        C  0.33374459  0.16713875  0.85595251     0.08300
C404        C  0.33377612  0.16716457  0.82361281    -0.18400
C405        C  0.33359550  0.16719129  0.57553449    -0.17600
C406        C  0.33356264  0.16723059  0.60681794     0.06500
C407        C  0.33356702  0.16723138  0.64318423     0.08300
C408        C  0.33361476  0.16720335  0.67446769    -0.18400
C409        C  0.33362678  0.66713569  0.03764446     0.30900
C410        C  0.33365664  0.66706672  0.46600338     0.30900
C411        C  0.35433831  0.64402605  0.02099587    -0.05300
C412        C  0.28981011  0.64638271  0.02094871    -0.06100
C413        C  0.35674971  0.71094624  0.02090581    -0.05900
C414        C  0.35518776  0.64381433  0.48421650    -0.05300
C415        C  0.28880979  0.64552014  0.48417016    -0.06000
C416        C  0.35694705  0.71192186  0.48412670    -0.05900
C417        C  0.37639765  0.62185792  0.47552953    -0.31300
N418        N  0.38708104  0.60906258  0.00602251     0.15200
C419        C  0.37360898  0.62237335  0.03386777    -0.31300
H420        H  0.37800982  0.61708944  0.06132364     0.17100
C421        C  0.24562710  0.62435210  0.47544190    -0.30300
N422        N  0.22209589  0.61369872  0.50591768     0.13900
C423        C  0.24884470  0.62714995  0.03378529    -0.30300
C424        C  0.37890232  0.75509886  0.47534925    -0.30600
N425        N  0.39168534  0.77865678  0.00580128     0.14400
H426        H  0.38530202  0.76841969  0.44895357     0.17000
C427        C  0.37839237  0.75192832  0.03369839    -0.30600
H428        H  0.38369284  0.76169357  0.06113481     0.17000
H429        H  0.23910368  0.62276694  0.06123144     0.17000
H430        H  0.38337385  0.61546620  0.44915821     0.17100
H431        H  0.23228426  0.61738604  0.44906152     0.17000
C432        C  0.33367935  0.66718311  0.21235771     0.30900
C433        C  0.33376214  0.66717258  0.28399881     0.30900
C434        C  0.35679113  0.64647511  0.22900801    -0.05300
C435        C  0.35443583  0.71100621  0.22904581    -0.06100
C436        C  0.28987382  0.64406493  0.22910237    -0.05900
C437        C  0.35701089  0.64563655  0.26578750    -0.05300
C438        C  0.35530569  0.71201604  0.26582426    -0.06000
C439        C  0.28890492  0.64387812  0.26588142    -0.05900
C440        C  0.37897857  0.62443882  0.27447657    -0.31300
N441        N  0.39177164  0.61375116  0.24398447     0.15200
C442        C  0.37844844  0.62720848  0.21613785    -0.31300
H443        H  0.38372974  0.62280299  0.18868245     0.17100
C444        C  0.37647918  0.75520215  0.27454528    -0.30300
N445        N  0.38712863  0.77872702  0.24406593     0.13900
C446        C  0.37366951  0.75197031  0.21620255    -0.30300
C447        C  0.24573058  0.62193241  0.27466411    -0.30600
N448        N  0.22216811  0.60914404  0.24421498     0.14400
H449        H  0.23241464  0.61554325  0.30106126     0.17000
C450        C  0.24889090  0.62242433  0.21631483    -0.30600
H451        H  0.23912128  0.61711839  0.18887977     0.17000
H452        H  0.37804882  0.76170497  0.18875486     0.17000
H453        H  0.38538074  0.61747507  0.30084871     0.17100
H454        H  0.38345228  0.76855177  0.30092362     0.17000
C455        C  0.16701806  0.83392314  0.03399879     0.30900
C456        C  0.16704861  0.83385487  0.46235770     0.30900
C457        C  0.14548636  0.85717492  0.01578565    -0.05300
C458        C  0.21186506  0.85547057  0.01583228    -0.06100
C459        C  0.14372849  0.78906813  0.01587518    -0.05900
C460        C  0.14633600  0.85696344  0.47900637    -0.05300
C461        C  0.21086510  0.85460857  0.47905378    -0.06000
C462        C  0.14392634  0.79004410  0.47909602    -0.05900
C463        C  0.12706550  0.87861625  0.46613443    -0.31300
N464        N  0.11359355  0.89192707  0.99397969     0.15200
C465        C  0.12427650  0.87913132  0.02447265    -0.31300
H466        H  0.11730034  0.88552306  0.05084397     0.17100
C467        C  0.25183056  0.87384125  0.46621743    -0.30300
N468        N  0.27857915  0.88729180  0.49408516     0.13900
C469        C  0.25504765  0.87663828  0.02456084    -0.30300
C470        C  0.12228342  0.74906209  0.46630312    -0.30600
N471        N  0.10898975  0.72233342  0.49420020     0.14400
H472        H  0.11698298  0.73929715  0.43886694     0.17000
C473        C  0.12177283  0.74589110  0.02465234    -0.30600
H474        H  0.11537248  0.73256999  0.05104805     0.17000
H475        H  0.26839020  0.88360369  0.05094127     0.17000
H476        H  0.12266518  0.88390060  0.43867879     0.17100
H477        H  0.26157177  0.87822433  0.43877127     0.17000
C478        C  0.16691259  0.83381733  0.21600326     0.30900
C479        C  0.16699562  0.83380695  0.28764434     0.30900
C480        C  0.14366460  0.85535408  0.23421458    -0.05300
C481        C  0.14536841  0.78897384  0.23417787    -0.06100
C482        C  0.21176988  0.85711120  0.23412053    -0.05900
C483        C  0.14388461  0.85451572  0.27099407    -0.05300
C484        C  0.14623824  0.78998379  0.27095633    -0.06000
C485        C  0.21080111  0.85692424  0.27089957    -0.05900
C486        C  0.12222726  0.87378228  0.28386430    -0.31300
N487        N  0.10890385  0.88723936  0.25601768     0.15200
C488        C  0.12169679  0.87655165  0.22552554    -0.31300
H489        H  0.11529420  0.88351500  0.19915342     0.17100
C490        C  0.12700501  0.74901979  0.28379973    -0.30300
N491        N  0.11354640  0.72226297  0.25593644     0.13900
C492        C  0.12419551  0.74578766  0.22545700    -0.30300
C493        C  0.25178405  0.87856486  0.28368703    -0.30600
N494        N  0.27850676  0.89184547  0.25578681     0.14400
H495        H  0.26155374  0.88387098  0.31112210     0.17000
C496        C  0.25494417  0.87905719  0.22533777    -0.30600
H497        H  0.26826009  0.88544679  0.19894045     0.17000
H498        H  0.11722287  0.73243786  0.19907869     0.17000
H499        H  0.11694587  0.87818766  0.31131962     0.17100
H500        H  0.12262609  0.73928533  0.31124742     0.17000
O501        O  0.05342474  0.98021283  0.02484125    -0.87400
C502        C  0.06877700  0.56553358  0.44588066     0.88600
Mg503      Mg  0.00458204  0.91332111  0.02284040     1.58100
O504        O  0.02050817  0.57376155  0.02501624    -0.87200
O505        O  0.07725985  0.53612878  0.05893952    -0.74500
C506        C  0.32421580  0.90960881  0.49140508     0.93700
O507        O  0.03614844  0.95932356  0.44092788    -0.74300
O508        O  0.34295987  0.88889023  0.48313844    -0.81800
Mg509      Mg  0.09173181  0.50477260  0.47698693     1.58000
C510        C  0.40938815  0.58575504  0.00871400     0.93600
O511        O  0.15596755  0.55152293  0.00170965    -0.80100
H512        H  0.02312321  0.58748099  0.07642643    -0.05400
C513        C  0.43540185  0.00407599  0.44587400     0.88500
O514        O  0.45905917  0.92338980  0.05883349    -0.74600
O515        O  0.07361774  0.55358292  0.47512398    -0.87300
O516        O  0.44921908  0.60512544  0.00168631    -0.80100
C517        C  0.08561752  0.67669447  0.49156411     0.93700
C518        C  0.17645922  0.59138144  0.00859786     0.93500
Mg519      Mg  0.40894367  0.99621770  0.02301533     1.58000
O520        O  0.34470752  0.94946689  0.49829469    -0.80100
O521        O  0.46452708  0.54166728  0.05907376    -0.74300
O522        O  0.10494420  0.65620892  0.49851521    -0.80200
O523        O  0.11200493  0.95472310  0.48295409    -0.81900
O524        O  0.39573036  0.84478134  0.00148836    -0.80200
C525        C  0.50377285  0.56889023  0.05429493     0.88000
O526        O  0.42705806  0.94740756  0.02487759    -0.87300
O527        O  0.44724957  0.52077692  0.47516033    -0.87400
O528        O  0.42341579  0.96486094  0.44106205    -0.74500
Mg529      Mg  0.08742172  0.59182338  0.02301269     1.58000
O530        O  0.04613698  0.65794274  0.48327331    -0.80900
H531        H  0.06452315  0.97755055  0.07624338    -0.05600
O532        O  0.48016687  0.92722795  0.47498500    -0.87100
H533        H  0.47755249  0.91351016  0.42357449    -0.05400
H534        H  0.41331586  0.93615409  0.07628002    -0.05600
C535        C  0.99690261  0.93210030  0.44570632     0.88000
C536        C  0.06527324  0.49691361  0.05412753     0.88500
C537        C  0.43189751  0.93545568  0.05412072     0.88600
H538        H  0.43615216  0.52343903  0.42375784    -0.05600
O539        O  0.04161461  0.57759857  0.44116798    -0.74600
Mg540      Mg  0.41325325  0.90916644  0.47698912     1.58000
H541        H  0.08735796  0.56483463  0.42372120    -0.05600
C542        C  0.09128677  0.91523489  0.49128818     0.93600
O543        O  0.45453841  0.84304734  0.01672698    -0.81800
C544        C  0.41505755  0.82429572  0.00843738     0.93600
O545        O  0.15771501  0.61210024  0.01686329    -0.81800
Mg546      Mg  0.49609258  0.58766844  0.47716105     1.58200
O547        O  0.05145597  0.89586477  0.49831610    -0.80100
O548        O  0.38867017  0.54626681  0.01704802    -0.81800
O549        O  0.02061793  0.94740740  0.22515595    -0.87400
C550        C  0.43529396  0.93204260  0.30410840     0.88600
Mg551      Mg  0.08750575  0.99625234  0.22716649     1.58100
O552        O  0.42708268  0.98032997  0.22497741    -0.87200
O553        O  0.46471281  0.92357404  0.19104847    -0.74500
C554        C  0.09122607  0.67662497  0.25862227     0.93700
O555        O  0.04149358  0.96466607  0.30907076    -0.74300
O556        O  0.11194151  0.65787777  0.26688935    -0.81800
Mg557      Mg  0.49605218  0.90908810  0.27300220     1.58000
C558        C  0.41508398  0.59144898  0.24129437     0.93600
O559        O  0.44930631  0.84485519  0.24826956    -0.80100
H560        H  0.41337557  0.97773068  0.17356584    -0.05400
C561        C  0.99674990  0.56542862  0.30413645     0.88500
O562        O  0.07744006  0.54178120  0.19117854    -0.74600
O563        O  0.44724375  0.92720238  0.27486460    -0.87300
O564        O  0.39571412  0.55161347  0.24830922    -0.80100
C565        C  0.32414451  0.91521510  0.25841847     0.93700
C566        C  0.40944918  0.82436505  0.24138029     0.93500
Mg567      Mg  0.00462279  0.59190208  0.22700121     1.58000
O568        O  0.05136899  0.65613480  0.25173310    -0.80100
O569        O  0.45918090  0.53632452  0.19093258    -0.74300
O570        O  0.34462657  0.89588859  0.25145376    -0.80200
O571        O  0.04610183  0.88881682  0.26703272    -0.81900
O572        O  0.15604848  0.60510171  0.24854705    -0.80200
C573        C  0.43196003  0.49707506  0.19570213     0.88000
O574        O  0.05343050  0.57378708  0.22513871    -0.87300
O575        O  0.48005705  0.55358302  0.27484744    -0.87400
O576        O  0.03596259  0.57741496  0.30895440    -0.74500
Mg577      Mg  0.40901551  0.91341094  0.22696990     1.58000
O578        O  0.34289825  0.95469357  0.26672028    -0.81900
H579        H  0.02329335  0.93631204  0.17375483    -0.05600
O580        O  0.07359326  0.52066019  0.27502553    -0.87100
H581        H  0.08729908  0.52325985  0.32643752    -0.05400
H582        H  0.06468405  0.58753310  0.17373668    -0.05600
C583        C  0.06871506  0.00391531  0.30430100     0.88000
C584        C  0.50392538  0.93556062  0.19586703     0.88500
C585        C  0.06538045  0.56894767  0.19589477     0.88600
H586        H  0.47738238  0.56467631  0.32624917    -0.05600
O587        O  0.42323476  0.95920946  0.30882425    -0.74600
Mg588      Mg  0.09165998  0.58757901  0.27303262     1.58000
H589        H  0.43599029  0.91345748  0.32626691    -0.05600
C590        C  0.08559151  0.90954149  0.25870782     0.93600
O591        O  0.15777643  0.54629613  0.23328197    -0.81800
C592        C  0.17653037  0.58577476  0.24158318     0.93600
O593        O  0.38873378  0.84311230  0.23311323    -0.81800
Mg594      Mg  0.41316912  0.50473799  0.27283585     1.58200
O595        O  0.10496074  0.94937630  0.25169057    -0.80100
O596        O  0.45457421  0.61217417  0.23297140    -0.81800
C597        C  0.16706042  0.83378704  0.32553440    -0.17600
C598        C  0.16710844  0.83375960  0.35681785     0.06500
C599        C  0.16711317  0.83376073  0.39318416     0.08300
C600        C  0.16708023  0.83379979  0.42446763    -0.18400
C601        C  0.16700190  0.83393075  0.07361275    -0.17600
C602        C  0.16697494  0.83389716  0.10595244     0.06500
C603        C  0.16692995  0.83385107  0.14404964     0.08300
C604        C  0.16689866  0.83382534  0.17638932    -0.18400
C605        C  0.33367257  0.66705895  0.42638942    -0.17600
C606        C  0.33369942  0.66709256  0.39404973     0.06500
C607        C  0.33374445  0.66713875  0.35595250     0.08300
C608        C  0.33377597  0.66716458  0.32361280    -0.18400
C609        C  0.33359558  0.66719128  0.07553450    -0.17600
C610        C  0.33356275  0.66723058  0.10681794     0.06500
C611        C  0.33356711  0.66723138  0.14318422     0.08300
C612        C  0.33361479  0.66720335  0.17446765    -0.18400
C613        C  0.33362674  0.66713567  0.53764445     0.30900
C614        C  0.33365658  0.66706669  0.96600339     0.30900
C615        C  0.35433830  0.64402606  0.52099586    -0.05300
C616        C  0.28981011  0.64638269  0.52094867    -0.06100
C617        C  0.35674969  0.71094622  0.52090580    -0.05900
C618        C  0.35518771  0.64381429  0.98421650    -0.05300
C619        C  0.28880976  0.64552011  0.98417020    -0.06000
C620        C  0.35694699  0.71192186  0.98412672    -0.05900
C621        C  0.37639764  0.62185791  0.97552951    -0.31300
N622        N  0.38708104  0.60906259  0.50602252     0.15200
C623        C  0.37360890  0.62237329  0.53386782    -0.31300
H624        H  0.37800963  0.61708937  0.56132344     0.17100
C625        C  0.24562711  0.62435203  0.97544194    -0.30300
N626        N  0.22209586  0.61369869  0.00591767     0.13900
C627        C  0.24884473  0.62714997  0.53378523    -0.30300
C628        C  0.37890227  0.75509887  0.97534922    -0.30600
N629        N  0.39168531  0.77865676  0.50580127     0.14400
H630        H  0.38530191  0.76841959  0.94895374     0.17000
C631        C  0.37839239  0.75192828  0.53369837    -0.30600
H632        H  0.38369295  0.76169351  0.56113479     0.17000
H633        H  0.23910369  0.62276694  0.56123157     0.17000
H634        H  0.38337383  0.61546619  0.94915824     0.17100
H635        H  0.23228428  0.61738598  0.94906148     0.17000
C636        C  0.33367939  0.66718313  0.71235775     0.30900
C637        C  0.33376219  0.66717257  0.78399885     0.30900
C638        C  0.35679112  0.64647508  0.72900808    -0.05300
C639        C  0.35443591  0.71100621  0.72904587    -0.06100
C640        C  0.28987388  0.64406499  0.72910241    -0.05900
C641        C  0.35701090  0.64563651  0.76578757    -0.05300
C642        C  0.35530574  0.71201606  0.76582432    -0.06000
C643        C  0.28890497  0.64387811  0.76588144    -0.05900
C644        C  0.37897861  0.62443878  0.77447673    -0.31300
N645        N  0.39177162  0.61375116  0.74398451     0.15200
C646        C  0.37844843  0.62720849  0.71613796    -0.31300
H647        H  0.38372980  0.62280299  0.68868239     0.17100
C648        C  0.37647923  0.75520220  0.77454528    -0.30300
N649        N  0.38712861  0.77872703  0.74406589     0.13900
C650        C  0.37366957  0.75197027  0.71620255    -0.30300
C651        C  0.24573063  0.62193233  0.77466405    -0.30600
N652        N  0.22216818  0.60914398  0.74421496     0.14400
H653        H  0.23241458  0.61554310  0.80106137     0.17000
C654        C  0.24889099  0.62242430  0.71631476    -0.30600
H655        H  0.23912148  0.61711840  0.68887992     0.17000
H656        H  0.37804883  0.76170484  0.68875486     0.17000
H657        H  0.38538074  0.61747511  0.80084849     0.17100
H658        H  0.38345243  0.76855193  0.80092361     0.17000
C659        C  0.16701810  0.83392318  0.53399879     0.30900
C660        C  0.16704861  0.83385481  0.96235767     0.30900
C661        C  0.14548639  0.85717499  0.51578573    -0.05300
C662        C  0.21186513  0.85547068  0.51583230    -0.06100
C663        C  0.14372857  0.78906816  0.51587513    -0.05900
C664        C  0.14633605  0.85696345  0.97900628    -0.05300
C665        C  0.21086508  0.85460846  0.97905376    -0.06000
C666        C  0.14392628  0.79004407  0.97909606    -0.05900
C667        C  0.12706566  0.87861640  0.96613435    -0.31300
N668        N  0.11359348  0.89192705  0.49397973     0.15200
C669        C  0.12427654  0.87913145  0.52447275    -0.31300
H670        H  0.11730047  0.88552330  0.55084391     0.17100
C671        C  0.25183058  0.87384118  0.96621743    -0.30300
N672        N  0.27857911  0.88729173  0.99408519     0.13900
C673        C  0.25504775  0.87663840  0.52456084    -0.30300
C674        C  0.12228352  0.74906210  0.96630323    -0.30600
N675        N  0.10898986  0.72233339  0.99420023     0.14400
H676        H  0.11698315  0.73929709  0.93886679     0.17000
C677        C  0.12177280  0.74589114  0.52465228    -0.30600
H678        H  0.11537243  0.73257003  0.55104803     0.17000
H679        H  0.26839033  0.88360381  0.55094122     0.17000
H680        H  0.12266540  0.88390085  0.93867867     0.17100
H681        H  0.26157186  0.87822431  0.93877131     0.17000
C682        C  0.16691260  0.83381731  0.71600323     0.30900
C683        C  0.16699555  0.83380691  0.78764431     0.30900
C684        C  0.14366462  0.85535407  0.73421457    -0.05300
C685        C  0.14536844  0.78897381  0.73417782    -0.06100
C686        C  0.21176988  0.85711116  0.73412053    -0.05900
C687        C  0.14388459  0.85451570  0.77099405    -0.05300
C688        C  0.14623815  0.78998376  0.77095628    -0.06000
C689        C  0.21080107  0.85692418  0.77089959    -0.05900
C690        C  0.12222722  0.87378220  0.78386422    -0.31300
N691        N  0.10890380  0.88723928  0.75601768     0.15200
C692        C  0.12169680  0.87655162  0.72552553    -0.31300
H693        H  0.11529422  0.88351497  0.69915341     0.17100
C694        C  0.12700488  0.74901977  0.78379967    -0.30300
N695        N  0.11354642  0.72226297  0.75593639     0.13900
C696        C  0.12419560  0.74578763  0.72545691    -0.30300
C697        C  0.25178401  0.87856474  0.78368706    -0.30600
N698        N  0.27850673  0.89184538  0.75578688     0.14400
H699        H  0.26155373  0.88387085  0.81112222     0.17000
C700        C  0.25494418  0.87905718  0.72533781    -0.30600
H701        H  0.26826011  0.88544687  0.69894053     0.17000
H702        H  0.11722297  0.73243783  0.69907869     0.17000
H703        H  0.11694578  0.87818761  0.81131983     0.17100
H704        H  0.12262587  0.73928528  0.81124737     0.17000
O705        O  0.05342470  0.98021299  0.52484118    -0.87400
C706        C  0.06877690  0.56553358  0.94588060     0.88600
Mg707      Mg  0.00458211  0.91332128  0.52284038     1.58100
O708        O  0.02050814  0.57376154  0.52501619    -0.87200
O709        O  0.07725992  0.53612872  0.55893960    -0.74500
C710        C  0.32421575  0.90960877  0.99140514     0.93700
O711        O  0.03614860  0.95932368  0.94092803    -0.74300
O712        O  0.34295983  0.88889021  0.98313848    -0.81800
Mg713      Mg  0.09173184  0.50477259  0.97698692     1.58000
C714        C  0.40938814  0.58575506  0.50871409     0.93600
O715        O  0.15596753  0.55152288  0.50170985    -0.80100
H716        H  0.02312321  0.58748102  0.57642643    -0.05400
C717        C  0.43540171  0.00407592  0.94587405     0.88500
O718        O  0.45905928  0.92338999  0.55883346    -0.74600
O719        O  0.07361760  0.55358288  0.97512392    -0.87300
O720        O  0.44921904  0.60512539  0.50168629    -0.80100
C721        C  0.08561757  0.67669444  0.99156409     0.93700
C722        C  0.17645923  0.59138142  0.50859793     0.93500
Mg723      Mg  0.40894367  0.99621773  0.52301533     1.58000
O724        O  0.34470745  0.94946686  0.99829469    -0.80100
O725        O  0.46452709  0.54166720  0.55907386    -0.74300
O726        O  0.10494418  0.65620884  0.99851519    -0.80200
O727        O  0.11200489  0.95472310  0.98295425    -0.81900
O728        O  0.39573036  0.84478137  0.50148845    -0.80200
C729        C  0.50377280  0.56889020  0.55429491     0.88000
O730        O  0.42705822  0.94740772  0.52487749    -0.87300
O731        O  0.44724970  0.52077691  0.97516034    -0.87400
O732        O  0.42341564  0.96486090  0.94106207    -0.74500
Mg733      Mg  0.08742178  0.59182338  0.52301269     1.58000
O734        O  0.04613703  0.65794274  0.98327323    -0.80900
H735        H  0.06452292  0.97755039  0.57624331    -0.05600
O736        O  0.48016691  0.92722790  0.97498504    -0.87100
H737        H  0.47755266  0.91351012  0.92357434    -0.05400
H738        H  0.41331563  0.93615401  0.57627996    -0.05600
C739        C  0.99690281  0.93210039  0.94570645     0.88000
C740        C  0.06527313  0.49691352  0.55412753     0.88500
C741        C  0.43189759  0.93545577  0.55412059     0.88600
H742        H  0.43615198  0.52343910  0.92375782    -0.05600
O743        O  0.04161464  0.57759874  0.94116793    -0.74600
Mg744      Mg  0.41325319  0.90916641  0.97698917     1.58000
H745        H  0.08735780  0.56483457  0.92372112    -0.05600
C746        C  0.09128676  0.91523485  0.99128825     0.93600
O747        O  0.45453839  0.84304734  0.51672712    -0.81800
C748        C  0.41505753  0.82429572  0.50843744     0.93600
O749        O  0.15771507  0.61210028  0.51686328    -0.81800
Mg750      Mg  0.49609267  0.58766856  0.97716105     1.58200
O751        O  0.05145593  0.89586463  0.99831609    -0.80100
O752        O  0.38867015  0.54626685  0.51704820    -0.81800
O753        O  0.02061794  0.94740748  0.72515593    -0.87400
C754        C  0.43529403  0.93204256  0.80410845     0.88600
Mg755      Mg  0.08750572  0.99625232  0.72716645     1.58100
O756        O  0.42708288  0.98033008  0.72497738    -0.87200
O757        O  0.46471283  0.92357409  0.69104857    -0.74500
C758        C  0.09122615  0.67662499  0.75862225     0.93700
O759        O  0.04149343  0.96466606  0.80907072    -0.74300
O760        O  0.11194170  0.65787789  0.76688927    -0.81800
Mg761      Mg  0.49605219  0.90908816  0.77300217     1.58000
C762        C  0.41508394  0.59144899  0.74129435     0.93600
O763        O  0.44930624  0.84485521  0.74826951    -0.80100
H764        H  0.41337564  0.97773066  0.67356580    -0.05400
C765        C  0.99674989  0.56542855  0.80413640     0.88500
O766        O  0.07744016  0.54178121  0.69117847    -0.74600
O767        O  0.44724374  0.92720236  0.77486458    -0.87300
O768        O  0.39571411  0.55161347  0.74830915    -0.80100
C769        C  0.32414449  0.91521505  0.75841852     0.93700
C770        C  0.40944913  0.82436505  0.74138021     0.93500
Mg771      Mg  0.00462276  0.59190207  0.72700126     1.58000
O772        O  0.05136903  0.65613477  0.75173328    -0.80100
O773        O  0.45918079  0.53632452  0.69093256    -0.74300
O774        O  0.34462659  0.89588862  0.75145370    -0.80200
O775        O  0.04610186  0.88881686  0.76703287    -0.81900
O776        O  0.15604855  0.60510169  0.74854700    -0.80200
C777        C  0.43196007  0.49707502  0.69570210     0.88000
O778        O  0.05343053  0.57378706  0.72513865    -0.87300
O779        O  0.48005703  0.55358291  0.77484738    -0.87400
O780        O  0.03596260  0.57741502  0.80895436    -0.74500
Mg781      Mg  0.40901558  0.91341103  0.72696989     1.58000
O782        O  0.34289821  0.95469354  0.76672026    -0.81900
H783        H  0.02329325  0.93631217  0.67375482    -0.05600
O784        O  0.07359312  0.52066023  0.77502549    -0.87100
H785        H  0.08729899  0.52325986  0.82643747    -0.05400
H786        H  0.06468412  0.58753309  0.67373656    -0.05600
C787        C  0.06871493  0.00391529  0.80430094     0.88000
C788        C  0.50392544  0.93556071  0.69586699     0.88500
C789        C  0.06538052  0.56894764  0.69589472     0.88600
H790        H  0.47738231  0.56467627  0.82624897    -0.05600
O791        O  0.42323484  0.95920947  0.80882428    -0.74600
Mg792      Mg  0.09166001  0.58757912  0.77303257     1.58000
H793        H  0.43599047  0.91345767  0.82626677    -0.05600
C794        C  0.08559150  0.90954145  0.75870784     0.93600
O795        O  0.15777647  0.54629611  0.73328191    -0.81800
C796        C  0.17653043  0.58577473  0.74158312     0.93600
O797        O  0.38873371  0.84311230  0.73311316    -0.81800
Mg798      Mg  0.41316916  0.50473794  0.77283579     1.58200
O799        O  0.10496073  0.94937623  0.75169049    -0.80100
O800        O  0.45457418  0.61217424  0.73297141    -0.81800
C801        C  0.16706026  0.83378698  0.82553436    -0.17600
C802        C  0.16710826  0.83375956  0.85681781     0.06500
C803        C  0.16711306  0.83376067  0.89318412     0.08300
C804        C  0.16708028  0.83379971  0.92446759    -0.18400
C805        C  0.16700184  0.83393072  0.57361272    -0.17600
C806        C  0.16697482  0.83389718  0.60595239     0.06500
C807        C  0.16692989  0.83385121  0.64404959     0.08300
C808        C  0.16689859  0.83382538  0.67638927    -0.18400
C809        C  0.33367248  0.66705890  0.92638942    -0.17600
C810        C  0.33369948  0.66709251  0.89404972     0.06500
C811        C  0.33374458  0.66713869  0.85595250     0.08300
C812        C  0.33377606  0.66716453  0.82361281    -0.18400
C813        C  0.33359544  0.66719124  0.57553449    -0.17600
C814        C  0.33356263  0.66723053  0.60681795     0.06500
C815        C  0.33356714  0.66723133  0.64318423     0.08300
C816        C  0.33361479  0.66720335  0.67446769    -0.18400
C817        C  0.83362674  0.16713572  0.03764446     0.30900
C818        C  0.83365664  0.16706677  0.46600338     0.30900
C819        C  0.85433830  0.14402609  0.02099587    -0.05300
C820        C  0.78981009  0.14638272  0.02094870    -0.06100
C821        C  0.85674974  0.21094628  0.02090584    -0.05900
C822        C  0.85518779  0.14381438  0.48421649    -0.05300
C823        C  0.78880980  0.14552020  0.48417018    -0.06000
C824        C  0.85694710  0.21192191  0.48412670    -0.05900
C825        C  0.87639768  0.12185796  0.47552950    -0.31300
N826        N  0.88708107  0.10906263  0.00602253     0.15200
C827        C  0.87360888  0.12237332  0.03386777    -0.31300
H828        H  0.87800958  0.11708929  0.06132368     0.17100
C829        C  0.74562711  0.12435211  0.47544193    -0.30300
N830        N  0.72209589  0.11369865  0.50591767     0.13900
C831        C  0.74884466  0.12714989  0.03378532    -0.30300
C832        C  0.87890238  0.25509890  0.47534925    -0.30600
N833        N  0.89168541  0.27865683  0.00580133     0.14400
H834        H  0.88530208  0.26841974  0.44895357     0.17000
C835        C  0.87839243  0.25192835  0.03369844    -0.30600
H836        H  0.88369289  0.26169359  0.06113487     0.17000
H837        H  0.73910366  0.12276683  0.06123136     0.17000
H838        H  0.88337384  0.11546620  0.44915825     0.17100
H839        H  0.73228427  0.11738610  0.44906146     0.17000
C840        C  0.83367937  0.16718317  0.21235773     0.30900
C841        C  0.83376211  0.16717252  0.28399882     0.30900
C842        C  0.85679114  0.14647514  0.22900801    -0.05300
C843        C  0.85443587  0.21100625  0.22904586    -0.06100
C844        C  0.78987381  0.14406498  0.22910238    -0.05900
C845        C  0.85701088  0.14563654  0.26578750    -0.05300
C846        C  0.85530570  0.21201605  0.26582431    -0.06000
C847        C  0.78890489  0.14387803  0.26588143    -0.05900
C848        C  0.87897859  0.12443886  0.27447657    -0.31300
N849        N  0.89177166  0.11375117  0.24398448     0.15200
C850        C  0.87844849  0.12720854  0.21613786    -0.31300
H851        H  0.88372981  0.12280307  0.18868247     0.17100
C852        C  0.87647924  0.25520220  0.27454531    -0.30300
N853        N  0.88712867  0.27872707  0.24406594     0.13900
C854        C  0.87366957  0.25197034  0.21620258    -0.30300
C855        C  0.74573055  0.12193224  0.27466407    -0.30600
N856        N  0.72216810  0.10914404  0.24421498     0.14400
H857        H  0.73241450  0.11554299  0.30106137     0.17000
C858        C  0.74889090  0.12242439  0.21631482    -0.30600
H859        H  0.73912127  0.11711847  0.18887976     0.17000
H860        H  0.87804884  0.26170495  0.18875491     0.17000
H861        H  0.88538077  0.11747515  0.30084871     0.17100
H862        H  0.88345235  0.26855185  0.30092363     0.17000
C863        C  0.66701808  0.33392315  0.03399877     0.30900
C864        C  0.66704861  0.33385487  0.46235770     0.30900
C865        C  0.64548631  0.35717485  0.01578564    -0.05300
C866        C  0.71186508  0.35547065  0.01583227    -0.06100
C867        C  0.64372855  0.28906814  0.01587515    -0.05900
C868        C  0.64633607  0.35696347  0.47900636    -0.05300
C869        C  0.71086511  0.35460853  0.47905377    -0.06000
C870        C  0.64392627  0.29004409  0.47909602    -0.05900
C871        C  0.62706552  0.37861625  0.46613444    -0.31300
N872        N  0.61359347  0.39192695  0.99397969     0.15200
C873        C  0.62427651  0.37913129  0.02447265    -0.31300
H874        H  0.61730053  0.38552317  0.05084397     0.17100
C875        C  0.75183055  0.37384125  0.46621747    -0.30300
N876        N  0.77857916  0.38729181  0.49408516     0.13900
C877        C  0.75504767  0.37663833  0.02456084    -0.30300
C878        C  0.62228340  0.24906208  0.46630312    -0.30600
N879        N  0.60898978  0.22233342  0.49420020     0.14400
H880        H  0.61698304  0.23929715  0.43886693     0.17000
C881        C  0.62177289  0.24589111  0.02465229    -0.30600
H882        H  0.61537252  0.23257001  0.05104801     0.17000
H883        H  0.76839019  0.38360368  0.05094126     0.17000
H884        H  0.62266519  0.38390061  0.43867882     0.17100
H885        H  0.76157186  0.37822434  0.43877113     0.17000
C886        C  0.66691259  0.33381737  0.21600326     0.30900
C887        C  0.66699560  0.33380697  0.28764434     0.30900
C888        C  0.64366463  0.35535413  0.23421459    -0.05300
C889        C  0.64536844  0.28897388  0.23417783    -0.06100
C890        C  0.71176986  0.35711121  0.23412053    -0.05900
C891        C  0.64388460  0.35451574  0.27099407    -0.05300
C892        C  0.64623820  0.28998382  0.27095630    -0.06000
C893        C  0.71080109  0.35692429  0.27089958    -0.05900
C894        C  0.62222725  0.37378228  0.28386429    -0.31300
N895        N  0.60890375  0.38723925  0.25601767     0.15200
C896        C  0.62169676  0.37655163  0.22552552    -0.31300
H897        H  0.61529419  0.38351498  0.19915345     0.17100
C898        C  0.62700490  0.24901983  0.28379962    -0.30300
N899        N  0.61354643  0.22226301  0.25593640     0.13900
C900        C  0.62419558  0.24578771  0.22545694    -0.30300
C901        C  0.75178402  0.37856489  0.28368704    -0.30600
N902        N  0.77850672  0.39184549  0.25578682     0.14400
H903        H  0.76155371  0.38387100  0.31112210     0.17000
C904        C  0.75494416  0.37905708  0.22533777    -0.30600
H905        H  0.76826007  0.38544662  0.19894048     0.17000
H906        H  0.61722298  0.23243793  0.19907863     0.17000
H907        H  0.61694589  0.37818771  0.31131961     0.17100
H908        H  0.62262584  0.23928527  0.31124759     0.17000
O909        O  0.55342477  0.48021284  0.02484124    -0.87400
C910        C  0.56877699  0.06553364  0.44588065     0.88600
Mg911      Mg  0.50458206  0.41332116  0.02284044     1.58100
O912        O  0.52050812  0.07376161  0.02501622    -0.87200
O913        O  0.57725988  0.03612878  0.05893950    -0.74500
C914        C  0.82421578  0.40960878  0.49140508     0.93700
O915        O  0.53614849  0.45932359  0.44092788    -0.74300
O916        O  0.84295982  0.38889015  0.48313845    -0.81800
Mg917      Mg  0.59173183  0.00477263  0.47698691     1.58000
C918        C  0.90938818  0.08575509  0.00871403     0.93600
O919        O  0.65596756  0.05152290  0.00170991    -0.80100
H920        H  0.52312318  0.08748087  0.07642636    -0.05400
C921        C  0.93540182  0.50407599  0.44587400     0.88500
O922        O  0.95905908  0.42338977  0.05883352    -0.74600
O923        O  0.57361778  0.05358300  0.47512395    -0.87300
O924        O  0.94921910  0.10512548  0.00168632    -0.80100
C925        C  0.58561754  0.17669445  0.49156411     0.93700
C926        C  0.67645922  0.09138145  0.00859797     0.93500
Mg927      Mg  0.90894372  0.49621772  0.02301531     1.58000
O928        O  0.84470754  0.44946686  0.49829466    -0.80100
O929        O  0.96452701  0.04166725  0.05907378    -0.74300
O930        O  0.60494424  0.15620893  0.49851521    -0.80200
O931        O  0.61200499  0.45472308  0.48295413    -0.81900
O932        O  0.89573043  0.34478142  0.00148856    -0.80200
C933        C  0.00377275  0.06889028  0.05429493     0.88000
O934        O  0.92705808  0.44740759  0.02487758    -0.87300
O935        O  0.94724961  0.02077693  0.47516033    -0.87400
O936        O  0.92341582  0.46486095  0.44106205    -0.74500
Mg937      Mg  0.58742174  0.09182343  0.02301269     1.58000
O938        O  0.54613700  0.15794270  0.48327331    -0.80900
H939        H  0.56452322  0.47755056  0.07624337    -0.05600
O940        O  0.98016693  0.42722798  0.47498501    -0.87100
H941        H  0.97755254  0.41351020  0.42357450    -0.05400
H942        H  0.91331555  0.43615386  0.07627997    -0.05600
C943        C  0.49690266  0.43210033  0.44570633     0.88000
C944        C  0.56527320  0.99691359  0.05412753     0.88500
C945        C  0.93189740  0.43545559  0.05412069     0.88600
H946        H  0.93615224  0.02343905  0.42375783    -0.05600
O947        O  0.54161452  0.07759854  0.44116800    -0.74600
Mg948      Mg  0.91325327  0.40916643  0.47698911     1.58000
H949        H  0.58735793  0.06483478  0.42372118    -0.05600
C950        C  0.59128680  0.41523487  0.49128827     0.93600
O951        O  0.95453847  0.34304739  0.01672715    -0.81800
C952        C  0.91505762  0.32429578  0.00843750     0.93600
O953        O  0.65771504  0.11210030  0.01686331    -0.81800
Mg954      Mg  0.99609258  0.08766847  0.47716107     1.58200
O955        O  0.55145600  0.39586478  0.49831613    -0.80100
O956        O  0.88867020  0.04626685  0.01704803    -0.81800
O957        O  0.52061783  0.44740745  0.22515597    -0.87400
C958        C  0.93529394  0.43204250  0.30410841     0.88600
Mg959      Mg  0.58750568  0.49625223  0.22716649     1.58100
O960        O  0.92708272  0.48033000  0.22497741    -0.87200
O961        O  0.96471278  0.42357386  0.19104849    -0.74500
C962        C  0.59122610  0.17662501  0.25862224     0.93700
O963        O  0.54149342  0.46466609  0.30907077    -0.74300
O964        O  0.61194154  0.15787782  0.26688935    -0.81800
Mg965      Mg  0.99605221  0.40908811  0.27300220     1.58000
C966        C  0.91508400  0.09144897  0.24129438     0.93600
O967        O  0.94930630  0.34485527  0.24826953    -0.80100
H968        H  0.91337561  0.47773073  0.17356585    -0.05400
C969        C  0.49674993  0.06542866  0.30413646     0.88500
O970        O  0.57744012  0.04178128  0.19117854    -0.74600
O971        O  0.94724378  0.42720239  0.27486459    -0.87300
O972        O  0.89571412  0.05161344  0.24830918    -0.80100
C973        C  0.82414449  0.41521512  0.25841846     0.93700
C974        C  0.90944917  0.32436510  0.24138028     0.93500
Mg975      Mg  0.50462273  0.09190212  0.22700120     1.58000
O976        O  0.55136902  0.15613485  0.25173309    -0.80100
O977        O  0.95918073  0.03632454  0.19093260    -0.74300
O978        O  0.84462654  0.39588863  0.25145372    -0.80200
O979        O  0.54610177  0.38881674  0.26703271    -0.81900
O980        O  0.65604848  0.10510176  0.24854706    -0.80200
C981        C  0.93195995  0.99707504  0.19570213     0.88000
O982        O  0.55343046  0.07378712  0.22513868    -0.87300
O983        O  0.98005706  0.05358305  0.27484743    -0.87400
O984        O  0.53596262  0.07741501  0.30895441    -0.74500
Mg985      Mg  0.90901551  0.41341094  0.22696991     1.58000
O986        O  0.84289824  0.45469360  0.26672029    -0.81900
H987        H  0.52329335  0.43631197  0.17375491    -0.05600
O988        O  0.57359328  0.02066024  0.27502555    -0.87100
H989        H  0.58729900  0.02325978  0.32643750    -0.05400
H990        H  0.56468401  0.08753306  0.17373667    -0.05600
C991        C  0.56871499  0.50391531  0.30430100     0.88000
C992        C  0.00392539  0.43556056  0.19586703     0.88500
C993        C  0.56538045  0.06894771  0.19589475     0.88600
H994        H  0.97738244  0.06467645  0.32624901    -0.05600
O995        O  0.92323478  0.45920943  0.30882427    -0.74600
Mg996      Mg  0.59165994  0.08757906  0.27303261     1.58000
H997        H  0.93599016  0.41345739  0.32626676    -0.05600
C998        C  0.58559145  0.40954139  0.25870782     0.93600
O999        O  0.65777644  0.04629619  0.23328196    -0.81800
C1000       C  0.67653036  0.08577481  0.24158317     0.93600
O1001       O  0.88873372  0.34311231  0.23311326    -0.81800
Mg1002     Mg  0.91316912  0.00473799  0.27283585     1.58200
O1003       O  0.60496070  0.44937620  0.25169061    -0.80100
O1004       O  0.95457423  0.11217416  0.23297143    -0.81800
C1005       C  0.66706032  0.33378697  0.32553440    -0.17600
C1006       C  0.66710816  0.33375944  0.35681785     0.06500
C1007       C  0.66711296  0.33376072  0.39318416     0.08300
C1008       C  0.66708022  0.33379981  0.42446762    -0.18400
C1009       C  0.66700195  0.33393078  0.07361275    -0.17600
C1010       C  0.66697501  0.33389722  0.10595244     0.06500
C1011       C  0.66692996  0.33385112  0.14404964     0.08300
C1012       C  0.66689859  0.33382540  0.17638932    -0.18400
C1013       C  0.83367250  0.16705901  0.42638943    -0.17600
C1014       C  0.83369943  0.16709262  0.39404973     0.06500
C1015       C  0.83374449  0.16713872  0.35595251     0.08300
C1016       C  0.83377593  0.16716444  0.32361281    -0.18400
C1017       C  0.83359545  0.16719126  0.07553450    -0.17600
C1018       C  0.83356265  0.16723042  0.10681794     0.06500
C1019       C  0.83356716  0.16723137  0.14318423     0.08300
C1020       C  0.83361486  0.16720343  0.17446767    -0.18400
C1021       C  0.83362677  0.16713572  0.53764447     0.30900
C1022       C  0.83365660  0.16706674  0.96600340     0.30900
C1023       C  0.85433834  0.14402610  0.52099586    -0.05300
C1024       C  0.78981013  0.14638277  0.52094869    -0.06100
C1025       C  0.85674974  0.21094627  0.52090580    -0.05900
C1026       C  0.85518775  0.14381435  0.98421649    -0.05300
C1027       C  0.78880975  0.14552015  0.98417020    -0.06000
C1028       C  0.85694704  0.21192191  0.98412674    -0.05900
C1029       C  0.87639771  0.12185799  0.97552952    -0.31300
N1030       N  0.88708105  0.10906261  0.50602250     0.15200
C1031       C  0.87360895  0.12237334  0.53386782    -0.31300
H1032       H  0.87800968  0.11708941  0.56132342     0.17100
C1033       C  0.74562705  0.12435210  0.97544193    -0.30300
N1034       N  0.72209586  0.11369872  0.00591770     0.13900
C1035       C  0.74884473  0.12714998  0.53378523    -0.30300
C1036       C  0.87890230  0.25509891  0.97534933    -0.30600
N1037       N  0.89168536  0.27865681  0.50580127     0.14400
H1038       H  0.88530194  0.26841977  0.94895360     0.17000
C1039       C  0.87839246  0.25192833  0.53369838    -0.30600
H1040       H  0.88369301  0.26169356  0.56113479     0.17000
H1041       H  0.73910365  0.12276695  0.56123157     0.17000
H1042       H  0.88337392  0.11546626  0.94915825     0.17100
H1043       H  0.73228422  0.11738611  0.94906157     0.17000
C1044       C  0.83367943  0.16718313  0.71235777     0.30900
C1045       C  0.83376224  0.16717259  0.78399886     0.30900
C1046       C  0.85679116  0.14647510  0.72900807    -0.05300
C1047       C  0.85443596  0.21100622  0.72904587    -0.06100
C1048       C  0.78987392  0.14406498  0.72910245    -0.05900
C1049       C  0.85701096  0.14563655  0.76578754    -0.05300
C1050       C  0.85530574  0.21201607  0.76582431    -0.06000
C1051       C  0.78890501  0.14387812  0.76588149    -0.05900
C1052       C  0.87897866  0.12443880  0.77447668    -0.31300
N1053       N  0.89177159  0.11375110  0.74398448     0.15200
C1054       C  0.87844848  0.12720849  0.71613786    -0.31300
H1055       H  0.88372977  0.12280306  0.68868256     0.17100
C1056       C  0.87647911  0.25520220  0.77454528    -0.30300
N1057       N  0.88712857  0.27872703  0.74406590     0.13900
C1058       C  0.87366961  0.25197028  0.71620255    -0.30300
C1059       C  0.74573067  0.12193238  0.77466411    -0.30600
N1060       N  0.72216820  0.10914406  0.74421501     0.14400
H1061       H  0.73241465  0.11554316  0.80106143     0.17000
C1062       C  0.74889103  0.12242434  0.71631488    -0.30600
H1063       H  0.73912144  0.11711838  0.68887977     0.17000
H1064       H  0.87804890  0.26170485  0.68875488     0.17000
H1065       H  0.88538079  0.11747516  0.80084845     0.17100
H1066       H  0.88345219  0.26855189  0.80092361     0.17000
C1067       C  0.66701813  0.33392315  0.53399878     0.30900
C1068       C  0.66704864  0.33385481  0.96235765     0.30900
C1069       C  0.64548643  0.35717496  0.51578572    -0.05300
C1070       C  0.71186513  0.35547061  0.51583229    -0.06100
C1071       C  0.64372855  0.28906815  0.51587513    -0.05900
C1072       C  0.64633597  0.35696334  0.97900626    -0.05300
C1073       C  0.71086511  0.35460851  0.97905375    -0.06000
C1074       C  0.64392635  0.29004408  0.97909603    -0.05900
C1075       C  0.62706546  0.37861618  0.96613434    -0.31300
N1076       N  0.61359343  0.39192694  0.49397977     0.15200
C1077       C  0.62427647  0.37913126  0.52447275    -0.31300
H1078       H  0.61730033  0.38552302  0.55084404     0.17100
C1079       C  0.75183061  0.37384121  0.96621744    -0.30300
N1080       N  0.77857915  0.38729177  0.99408520     0.13900
C1081       C  0.75504773  0.37663827  0.52456083    -0.30300
C1082       C  0.62228354  0.24906210  0.96630312    -0.30600
N1083       N  0.60898990  0.22233341  0.99420019     0.14400
H1084       H  0.61698316  0.23929719  0.93886696     0.17000
C1085       C  0.62177283  0.24589113  0.52465227    -0.30600
H1086       H  0.61537251  0.23257004  0.55104803     0.17000
H1087       H  0.76839033  0.38360360  0.55094126     0.17000
H1088       H  0.62266516  0.38390060  0.93867869     0.17100
H1089       H  0.76157190  0.37822431  0.93877132     0.17000
C1090       C  0.66691258  0.33381735  0.71600323     0.30900
C1091       C  0.66699555  0.33380695  0.78764431     0.30900
C1092       C  0.64366454  0.35535408  0.73421455    -0.05300
C1093       C  0.64536848  0.28897385  0.73417782    -0.06100
C1094       C  0.71176986  0.35711118  0.73412054    -0.05900
C1095       C  0.64388454  0.35451572  0.77099404    -0.05300
C1096       C  0.64623819  0.28998380  0.77095628    -0.06000
C1097       C  0.71080107  0.35692424  0.77089959    -0.05900
C1098       C  0.62222720  0.37378226  0.78386423    -0.31300
N1099       N  0.60890376  0.38723936  0.75601771     0.15200
C1100       C  0.62169669  0.37655167  0.72552549    -0.31300
H1101       H  0.61529414  0.38351498  0.69915364     0.17100
C1102       C  0.62700495  0.24901980  0.78379967    -0.30300
N1103       N  0.61354650  0.22226298  0.75593639     0.13900
C1104       C  0.62419567  0.24578766  0.72545692    -0.30300
C1105       C  0.75178402  0.37856480  0.78368706    -0.30600
N1106       N  0.77850673  0.39184542  0.75578687     0.14400
H1107       H  0.76155374  0.38387090  0.81112222     0.17000
C1108       C  0.75494416  0.37905708  0.72533781    -0.30600
H1109       H  0.76826007  0.38544665  0.69894049     0.17000
H1110       H  0.61722302  0.23243788  0.69907869     0.17000
H1111       H  0.61694577  0.37818766  0.81131983     0.17100
H1112       H  0.62262591  0.23928533  0.81124737     0.17000
O1113       O  0.55342466  0.48021285  0.52484122    -0.87400
C1114       C  0.56877693  0.06553358  0.94588061     0.88600
Mg1115     Mg  0.50458207  0.41332114  0.52284038     1.58100
O1116       O  0.52050809  0.07376149  0.52501624    -0.87200
O1117       O  0.57725979  0.03612877  0.55893965    -0.74500
C1118       C  0.82421580  0.40960882  0.99140515     0.93700
O1119       O  0.53614860  0.45932353  0.94092802    -0.74300
O1120       O  0.84295989  0.38889025  0.98313848    -0.81800
Mg1121     Mg  0.59173188  0.00477264  0.97698696     1.58000
C1122       C  0.90938811  0.08575504  0.50871403     0.93600
O1123       O  0.65596749  0.05152288  0.50170985    -0.80100
H1124       H  0.52312325  0.08748108  0.57642647    -0.05400
C1125       C  0.93540175  0.50407594  0.94587407     0.88500
O1126       O  0.95905920  0.42338978  0.55883345    -0.74600
O1127       O  0.57361771  0.05358295  0.97512394    -0.87300
O1128       O  0.94921906  0.10512541  0.50168632    -0.80100
C1129       C  0.58561761  0.17669447  0.99156406     0.93700
C1130       C  0.67645923  0.09138142  0.50859793     0.93500
Mg1131     Mg  0.90894369  0.49621770  0.52301528     1.58000
O1132       O  0.84470751  0.44946690  0.99829468    -0.80100
O1133       O  0.96452702  0.04166730  0.55907383    -0.74300
O1134       O  0.60494424  0.15620889  0.99851519    -0.80200
O1135       O  0.61200497  0.45472309  0.98295427    -0.81900
O1136       O  0.89573043  0.34478141  0.50148845    -0.80200
C1137       C  0.00377277  0.06889022  0.55429492     0.88000
O1138       O  0.92705818  0.44740761  0.52487751    -0.87300
O1139       O  0.94724950  0.02077689  0.97516034    -0.87400
O1140       O  0.92341566  0.46486090  0.94106205    -0.74500
Mg1141     Mg  0.58742179  0.09182341  0.52301270     1.58000
O1142       O  0.54613705  0.15794274  0.98327322    -0.80900
H1143       H  0.56452298  0.47755032  0.57624335    -0.05600
O1144       O  0.98016693  0.42722793  0.97498506    -0.87100
H1145       H  0.97755256  0.41351004  0.92357435    -0.05400
H1146       H  0.91331581  0.43615412  0.57628003    -0.05600
C1147       C  0.49690279  0.43210034  0.94570646     0.88000
C1148       C  0.56527309  0.99691360  0.55412752     0.88500
C1149       C  0.93189760  0.43545569  0.55412061     0.88600
H1150       H  0.93615209  0.02343910  0.92375774    -0.05600
O1151       O  0.54161449  0.07759851  0.94116793    -0.74600
Mg1152     Mg  0.91325325  0.40916644  0.97698920     1.58000
H1153       H  0.58735791  0.06483467  0.92372114    -0.05600
C1154       C  0.59128677  0.41523484  0.99128826     0.93600
O1155       O  0.95453843  0.34304733  0.51672711    -0.81800
C1156       C  0.91505758  0.32429575  0.50843744     0.93600
O1157       O  0.65771511  0.11210032  0.51686328    -0.81800
Mg1158     Mg  0.99609252  0.08766847  0.97716103     1.58200
O1159       O  0.55145596  0.39586468  0.99831610    -0.80100
O1160       O  0.88867009  0.04626680  0.51704800    -0.81800
O1161       O  0.52061794  0.44740742  0.72515593    -0.87400
C1162       C  0.93529400  0.43204245  0.80410846     0.88600
Mg1163     Mg  0.58750571  0.49625233  0.72716644     1.58100
O1164       O  0.92708284  0.48032995  0.72497735    -0.87200
O1165       O  0.96471276  0.42357381  0.69104858    -0.74500
C1166       C  0.59122612  0.17662498  0.75862225     0.93700
O1167       O  0.54149345  0.46466603  0.80907071    -0.74300
O1168       O  0.61194156  0.15787775  0.76688924    -0.81800
Mg1169     Mg  0.99605215  0.40908809  0.77300217     1.58000
C1170       C  0.91508388  0.09144889  0.74129433     0.93600
O1171       O  0.94930623  0.34485520  0.74826949    -0.80100
H1172       H  0.91337563  0.47773060  0.67356575    -0.05400
C1173       C  0.49674995  0.06542860  0.80413640     0.88500
O1174       O  0.57744020  0.04178124  0.69117847    -0.74600
O1175       O  0.94724374  0.42720230  0.77486457    -0.87300
O1176       O  0.89571402  0.05161336  0.74830914    -0.80100
C1177       C  0.82414450  0.41521508  0.75841851     0.93700
C1178       C  0.90944910  0.32436505  0.74138022     0.93500
Mg1179     Mg  0.50462278  0.09190210  0.72700125     1.58000
O1180       O  0.55136897  0.15613483  0.75173331    -0.80100
O1181       O  0.95918085  0.03632457  0.69093251    -0.74300
O1182       O  0.84462657  0.39588862  0.75145371    -0.80200
O1183       O  0.54610177  0.38881684  0.76703286    -0.81900
O1184       O  0.65604849  0.10510169  0.74854698    -0.80200
C1185       C  0.93196009  0.99707509  0.69570211     0.88000
O1186       O  0.55343058  0.07378709  0.72513864    -0.87300
O1187       O  0.98005709  0.05358296  0.77484739    -0.87400
O1188       O  0.53596264  0.07741502  0.80895437    -0.74500
Mg1189     Mg  0.90901554  0.41341090  0.72696989     1.58000
O1190       O  0.84289823  0.45469357  0.76672027    -0.81900
H1191       H  0.52329316  0.43631198  0.67375494    -0.05600
O1192       O  0.57359315  0.02066019  0.77502549    -0.87100
H1193       H  0.58729902  0.02325985  0.82643746    -0.05400
H1194       H  0.56468421  0.08753316  0.67373656    -0.05600
C1195       C  0.56871490  0.50391529  0.80430094     0.88000
C1196       C  0.00392541  0.43556053  0.69586698     0.88500
C1197       C  0.56538059  0.06894769  0.69589472     0.88600
H1198       H  0.97738238  0.06467637  0.82624896    -0.05600
O1199       O  0.92323487  0.45920942  0.80882429    -0.74600
Mg1200     Mg  0.59165997  0.08757902  0.77303257     1.58000
H1201       H  0.93599034  0.41345759  0.82626663    -0.05600
C1202       C  0.58559143  0.40954149  0.75870786     0.93600
O1203       O  0.65777650  0.04629616  0.73328192    -0.81800
C1204       C  0.67653043  0.08577477  0.74158315     0.93600
O1205       O  0.88873369  0.34311228  0.73311317    -0.81800
Mg1206     Mg  0.91316920  0.00473796  0.77283580     1.58200
O1207       O  0.60496061  0.44937626  0.75169050    -0.80100
O1208       O  0.95457411  0.11217410  0.73297141    -0.81800
C1209       C  0.66706030  0.33378703  0.82553436    -0.17600
C1210       C  0.66710833  0.33375961  0.85681780     0.06500
C1211       C  0.66711313  0.33376073  0.89318411     0.08300
C1212       C  0.66708032  0.33379972  0.92446758    -0.18400
C1213       C  0.66700189  0.33393072  0.57361272    -0.17600
C1214       C  0.66697485  0.33389716  0.60595239     0.06500
C1215       C  0.66692986  0.33385107  0.64404959     0.08300
C1216       C  0.66689860  0.33382536  0.67638928    -0.18400
C1217       C  0.83367248  0.16705896  0.92638942    -0.17600
C1218       C  0.83369938  0.16709256  0.89404972     0.06500
C1219       C  0.83374459  0.16713875  0.85595251     0.08300
C1220       C  0.83377612  0.16716457  0.82361281    -0.18400
C1221       C  0.83359550  0.16719129  0.57553451    -0.17600
C1222       C  0.83356265  0.16723059  0.60681798     0.06500
C1223       C  0.83356702  0.16723139  0.64318426     0.08300
C1224       C  0.83361476  0.16720336  0.67446773    -0.18400
C1225       C  0.83362675  0.66713568  0.03764447     0.30900
C1226       C  0.83365665  0.66706673  0.46600339     0.30900
C1227       C  0.85433830  0.64402604  0.02099587    -0.05300
C1228       C  0.78981008  0.64638272  0.02094873    -0.06100
C1229       C  0.85674970  0.71094623  0.02090585    -0.05900
C1230       C  0.85518776  0.64381434  0.48421650    -0.05300
C1231       C  0.78880979  0.64552015  0.48417017    -0.06000
C1232       C  0.85694706  0.71192188  0.48412672    -0.05900
C1233       C  0.87639763  0.62185793  0.47552952    -0.31300
N1234       N  0.88708104  0.60906258  0.00602251     0.15200
C1235       C  0.87360898  0.62237335  0.03386777    -0.31300
H1236       H  0.87800982  0.61708944  0.06132364     0.17100
C1237       C  0.74562710  0.62435210  0.47544190    -0.30300
N1238       N  0.72209589  0.61369872  0.50591768     0.13900
C1239       C  0.74884464  0.62715000  0.03378530    -0.30300
C1240       C  0.87890233  0.75509887  0.47534924    -0.30600
N1241       N  0.89168534  0.77865678  0.00580132     0.14400
H1242       H  0.88530202  0.76841967  0.44895356     0.17000
C1243       C  0.87839236  0.75192830  0.03369844    -0.30600
H1244       H  0.88369283  0.76169354  0.06113486     0.17000
H1245       H  0.73910359  0.62276701  0.06123138     0.17000
H1246       H  0.88337385  0.61546621  0.44915820     0.17100
H1247       H  0.73228427  0.61738604  0.44906152     0.17000
C1248       C  0.83367939  0.66718311  0.21235771     0.30900
C1249       C  0.83376216  0.66717258  0.28399880     0.30900
C1250       C  0.85679113  0.64647508  0.22900801    -0.05300
C1251       C  0.85443594  0.71100622  0.22904581    -0.06100
C1252       C  0.78987384  0.64406496  0.22910237    -0.05900
C1253       C  0.85701089  0.64563653  0.26578750    -0.05300
C1254       C  0.85530575  0.71201604  0.26582426    -0.06000
C1255       C  0.78890493  0.64387814  0.26588142    -0.05900
C1256       C  0.87897857  0.62443881  0.27447657    -0.31300
N1257       N  0.89177161  0.61375110  0.24398448     0.15200
C1258       C  0.87844845  0.62720846  0.21613785    -0.31300
H1259       H  0.88372975  0.62280298  0.18868246     0.17100
C1260       C  0.87647918  0.75520215  0.27454528    -0.30300
N1261       N  0.88712863  0.77872702  0.24406593     0.13900
C1262       C  0.87366956  0.75197031  0.21620255    -0.30300
C1263       C  0.74573061  0.62193242  0.27466407    -0.30600
N1264       N  0.72216811  0.60914403  0.24421499     0.14400
H1265       H  0.73241456  0.61554321  0.30106140     0.17000
C1266       C  0.74889092  0.62242434  0.21631483    -0.30600
H1267       H  0.73912129  0.61711839  0.18887977     0.17000
H1268       H  0.87804880  0.76170496  0.18875486     0.17000
H1269       H  0.88538074  0.61747506  0.30084872     0.17100
H1270       H  0.88345224  0.76855176  0.30092362     0.17000
C1271       C  0.66701806  0.83392313  0.03399878     0.30900
C1272       C  0.66704858  0.83385482  0.46235770     0.30900
C1273       C  0.64548636  0.85717492  0.01578565    -0.05300
C1274       C  0.71186506  0.85547057  0.01583228    -0.06100
C1275       C  0.64372849  0.78906813  0.01587514    -0.05900
C1276       C  0.64633599  0.85696339  0.47900637    -0.05300
C1277       C  0.71086507  0.85460852  0.47905377    -0.06000
C1278       C  0.64392632  0.79004406  0.47909602    -0.05900
C1279       C  0.62706546  0.87861620  0.46613444    -0.31300
N1280       N  0.61359355  0.89192707  0.99397969     0.15200
C1281       C  0.62427650  0.87913131  0.02447265    -0.31300
H1282       H  0.61730034  0.88552306  0.05084397     0.17100
C1283       C  0.75183052  0.87384123  0.46621748    -0.30300
N1284       N  0.77857911  0.88729175  0.49408516     0.13900
C1285       C  0.75504765  0.87663827  0.02456084    -0.30300
C1286       C  0.62228340  0.74906206  0.46630312    -0.30600
N1287       N  0.60898975  0.72233339  0.49420020     0.14400
H1288       H  0.61698298  0.73929712  0.43886694     0.17000
C1289       C  0.62177283  0.74589109  0.02465229    -0.30600
H1290       H  0.61537247  0.73256997  0.05104800     0.17000
H1291       H  0.76839020  0.88360368  0.05094127     0.17000
H1292       H  0.62266518  0.88390060  0.43867880     0.17100
H1293       H  0.76157182  0.87822437  0.43877111     0.17000
C1294       C  0.66691256  0.83381734  0.21600326     0.30900
C1295       C  0.66699562  0.83380695  0.28764433     0.30900
C1296       C  0.64366460  0.85535408  0.23421459    -0.05300
C1297       C  0.64536841  0.78897385  0.23417784    -0.06100
C1298       C  0.71176987  0.85711121  0.23412051    -0.05900
C1299       C  0.64388461  0.85451572  0.27099407    -0.05300
C1300       C  0.64623824  0.78998379  0.27095630    -0.06000
C1301       C  0.71080111  0.85692424  0.27089956    -0.05900
C1302       C  0.62222727  0.87378228  0.28386430    -0.31300
N1303       N  0.60890385  0.88723936  0.25601768     0.15200
C1304       C  0.62169679  0.87655165  0.22552554    -0.31300
H1305       H  0.61529421  0.88351499  0.19915342     0.17100
C1306       C  0.62700502  0.74901981  0.28379962    -0.30300
N1307       N  0.61354640  0.72226298  0.25593640     0.13900
C1308       C  0.62419551  0.74578766  0.22545692    -0.30300
C1309       C  0.75178405  0.87856486  0.28368703    -0.30600
N1310       N  0.77850676  0.89184547  0.25578681     0.14400
H1311       H  0.76155375  0.88387098  0.31112210     0.17000
C1312       C  0.75494418  0.87905719  0.22533777    -0.30600
H1313       H  0.76826009  0.88544680  0.19894045     0.17000
H1314       H  0.61722288  0.73243790  0.19907871     0.17000
H1315       H  0.61694587  0.87818766  0.31131962     0.17100
H1316       H  0.62262606  0.73928525  0.31124758     0.17000
O1317       O  0.55342474  0.98021283  0.02484125    -0.87400
C1318       C  0.56877701  0.56553358  0.44588066     0.88600
Mg1319     Mg  0.50458204  0.91332111  0.02284040     1.58100
O1320       O  0.52050817  0.57376155  0.02501624    -0.87200
O1321       O  0.57725985  0.53612878  0.05893952    -0.74500
C1322       C  0.82421576  0.90960872  0.49140509     0.93700
O1323       O  0.53614844  0.95932356  0.44092789    -0.74300
O1324       O  0.84295979  0.88889009  0.48313846    -0.81800
Mg1325     Mg  0.59173181  0.50477260  0.47698693     1.58000
C1326       C  0.90938815  0.58575504  0.00871400     0.93600
O1327       O  0.65596752  0.55152288  0.00170987    -0.80100
H1328       H  0.52312321  0.58748098  0.07642643    -0.05400
C1329       C  0.93540185  0.00407599  0.44587400     0.88500
O1330       O  0.95905917  0.92338980  0.05883349    -0.74600
O1331       O  0.57361774  0.55358292  0.47512398    -0.87300
O1332       O  0.94921909  0.60512544  0.00168631    -0.80100
C1333       C  0.58561757  0.67669444  0.49156411     0.93700
C1334       C  0.67645919  0.59138143  0.00859788     0.93500
Mg1335     Mg  0.90894366  0.99621769  0.02301533     1.58000
O1336       O  0.84470752  0.94946680  0.49829466    -0.80100
O1337       O  0.96452708  0.54166728  0.05907376    -0.74300
O1338       O  0.60494429  0.65620893  0.49851524    -0.80200
O1339       O  0.61200494  0.95472305  0.48295414    -0.81900
O1340       O  0.89573034  0.84478136  0.00148858    -0.80200
C1341       C  0.00377285  0.56889023  0.05429493     0.88000
O1342       O  0.92705808  0.94740757  0.02487759    -0.87300
O1343       O  0.94724960  0.52077697  0.47516032    -0.87400
O1344       O  0.92341578  0.96486094  0.44106205    -0.74500
Mg1345     Mg  0.58742172  0.59182338  0.02301269     1.58000
O1346       O  0.54613703  0.65794265  0.48327328    -0.80900
H1347       H  0.56452316  0.97755055  0.07624338    -0.05600
O1348       O  0.98016687  0.92722796  0.47498500    -0.87100
H1349       H  0.97755249  0.91351016  0.42357450    -0.05400
H1350       H  0.91331586  0.93615409  0.07628002    -0.05600
C1351       C  0.49690261  0.93210030  0.44570632     0.88000
C1352       C  0.56527324  0.49691361  0.05412753     0.88500
C1353       C  0.93189751  0.93545568  0.05412072     0.88600
H1354       H  0.93615216  0.52343903  0.42375783    -0.05600
O1355       O  0.54161459  0.57759852  0.44116798    -0.74600
Mg1356     Mg  0.91325323  0.90916642  0.47698912     1.58000
H1357       H  0.58735801  0.56483467  0.42372120    -0.05600
C1358       C  0.59128675  0.91523485  0.49128826     0.93600
O1359       O  0.95453844  0.84304735  0.01672696    -0.81800
C1360       C  0.91505756  0.82429573  0.00843745     0.93600
O1361       O  0.65771500  0.61210026  0.01686327    -0.81800
Mg1362     Mg  0.99609262  0.58766858  0.47716106     1.58200
O1363       O  0.55145595  0.89586477  0.49831613    -0.80100
O1364       O  0.88867018  0.54626681  0.01704802    -0.81800
O1365       O  0.52061783  0.94740746  0.22515598    -0.87400
C1366       C  0.93529397  0.93204260  0.30410840     0.88600
Mg1367     Mg  0.58750571  0.99625234  0.22716649     1.58100
O1368       O  0.92708268  0.98032997  0.22497741    -0.87200
O1369       O  0.96471286  0.92357407  0.19104852    -0.74500
C1370       C  0.59122608  0.67662498  0.25862224     0.93700
O1371       O  0.54149339  0.96466609  0.30907076    -0.74300
O1372       O  0.61194154  0.65787782  0.26688934    -0.81800
Mg1373     Mg  0.99605223  0.90908810  0.27300220     1.58000
C1374       C  0.91508394  0.59144891  0.24129437     0.93600
O1375       O  0.94930631  0.84485519  0.24826956    -0.80100
H1376       H  0.91337554  0.97773070  0.17356585    -0.05400
C1377       C  0.49675001  0.56542860  0.30413644     0.88500
O1378       O  0.57744011  0.54178118  0.19117855    -0.74600
O1379       O  0.94724377  0.92720240  0.27486460    -0.87300
O1380       O  0.89571406  0.55161338  0.24830918    -0.80100
C1381       C  0.82414451  0.91521509  0.25841847     0.93700
C1382       C  0.90944918  0.82436505  0.24138029     0.93500
Mg1383     Mg  0.50462281  0.59190208  0.22700120     1.58000
O1384       O  0.55136899  0.65613480  0.25173310    -0.80100
O1385       O  0.95918090  0.53632452  0.19093258    -0.74300
O1386       O  0.84462658  0.89588859  0.25145376    -0.80200
O1387       O  0.54610183  0.88881683  0.26703272    -0.81900
O1388       O  0.65604851  0.60510175  0.24854704    -0.80200
C1389       C  0.93196003  0.49707506  0.19570213     0.88000
O1390       O  0.55343056  0.57378710  0.22513870    -0.87300
O1391       O  0.98005701  0.55358301  0.27484743    -0.87400
O1392       O  0.53596268  0.57741501  0.30895438    -0.74500
Mg1393     Mg  0.90901551  0.91341094  0.22696991     1.58000
O1394       O  0.84289825  0.95469357  0.26672028    -0.81900
H1395       H  0.52329333  0.93631201  0.17375490    -0.05600
O1396       O  0.57359330  0.52066024  0.27502554    -0.87100
H1397       H  0.58729908  0.52325984  0.32643753    -0.05400
H1398       H  0.56468430  0.58753328  0.17373664    -0.05600
C1399       C  0.56871498  0.00391531  0.30430102     0.88000
C1400       C  0.00392543  0.93556062  0.19586701     0.88500
C1401       C  0.56538058  0.56894769  0.19589479     0.88600
H1402       H  0.97738241  0.56467642  0.32624901    -0.05600
O1403       O  0.92323476  0.95920946  0.30882425    -0.74600
Mg1404     Mg  0.59166006  0.58757912  0.27303262     1.58000
H1405       H  0.93599030  0.91345748  0.32626690    -0.05600
C1406       C  0.58559151  0.90954149  0.25870782     0.93600
O1407       O  0.65777643  0.54629613  0.23328197    -0.81800
C1408       C  0.67653038  0.58577477  0.24158318     0.93600
O1409       O  0.88873378  0.84311230  0.23311323    -0.81800
Mg1410     Mg  0.91316911  0.50473797  0.27283585     1.58200
O1411       O  0.60496074  0.94937630  0.25169057    -0.80100
O1412       O  0.95457417  0.61217410  0.23297142    -0.81800
C1413       C  0.66706042  0.83378703  0.32553440    -0.17600
C1414       C  0.66710844  0.83375961  0.35681785     0.06500
C1415       C  0.66711317  0.83376072  0.39318416     0.08300
C1416       C  0.66708021  0.83379975  0.42446762    -0.18400
C1417       C  0.66700191  0.83393074  0.07361275    -0.17600
C1418       C  0.66697494  0.83389716  0.10595244     0.06500
C1419       C  0.66692989  0.83385107  0.14404964     0.08300
C1420       C  0.66689852  0.83382535  0.17638932    -0.18400
C1421       C  0.83367257  0.66705895  0.42638943    -0.17600
C1422       C  0.83369942  0.66709256  0.39404973     0.06500
C1423       C  0.83374446  0.66713875  0.35595250     0.08300
C1424       C  0.83377597  0.66716458  0.32361280    -0.18400
C1425       C  0.83359557  0.66719127  0.07553450    -0.17600
C1426       C  0.83356275  0.66723058  0.10681794     0.06500
C1427       C  0.83356711  0.66723138  0.14318422     0.08300
C1428       C  0.83361480  0.66720335  0.17446765    -0.18400
C1429       C  0.83362675  0.66713570  0.53764447     0.30900
C1430       C  0.83365658  0.66706668  0.96600341     0.30900
C1431       C  0.85433831  0.64402607  0.52099587    -0.05300
C1432       C  0.78981012  0.64638270  0.52094868    -0.06100
C1433       C  0.85674971  0.71094626  0.52090582    -0.05900
C1434       C  0.85518771  0.64381429  0.98421650    -0.05300
C1435       C  0.78880975  0.64552010  0.98417022    -0.06000
C1436       C  0.85694699  0.71192186  0.98412675    -0.05900
C1437       C  0.87639764  0.62185791  0.97552951    -0.31300
N1438       N  0.88708100  0.60906259  0.50602250     0.15200
C1439       C  0.87360888  0.62237330  0.53386783    -0.31300
H1440       H  0.87800964  0.61708938  0.56132343     0.17100
C1441       C  0.74562709  0.62435201  0.97544193    -0.30300
N1442       N  0.72209584  0.61369870  0.00591766     0.13900
C1443       C  0.74884473  0.62714998  0.53378523    -0.30300
C1444       C  0.87890226  0.75509885  0.97534933    -0.30600
N1445       N  0.89168533  0.77865679  0.50580125     0.14400
H1446       H  0.88530197  0.76841971  0.94895359     0.17000
C1447       C  0.87839243  0.75192836  0.53369839    -0.30600
H1448       H  0.88369300  0.76169363  0.56113473     0.17000
H1449       H  0.73910369  0.62276694  0.56123157     0.17000
H1450       H  0.88337383  0.61546619  0.94915824     0.17100
H1451       H  0.73228429  0.61738596  0.94906148     0.17000
C1452       C  0.83367940  0.66718313  0.71235778     0.30900
C1453       C  0.83376219  0.66717257  0.78399886     0.30900
C1454       C  0.85679112  0.64647508  0.72900809    -0.05300
C1455       C  0.85443591  0.71100621  0.72904588    -0.06100
C1456       C  0.78987389  0.64406499  0.72910242    -0.05900
C1457       C  0.85701090  0.64563651  0.76578758    -0.05300
C1458       C  0.85530575  0.71201606  0.76582432    -0.06000
C1459       C  0.78890497  0.64387810  0.76588145    -0.05900
C1460       C  0.87897861  0.62443878  0.77447673    -0.31300
N1461       N  0.89177162  0.61375116  0.74398451     0.15200
C1462       C  0.87844843  0.62720849  0.71613796    -0.31300
H1463       H  0.88372980  0.62280299  0.68868240     0.17100
C1464       C  0.87647924  0.75520221  0.77454529    -0.30300
N1465       N  0.88712863  0.77872703  0.74406590     0.13900
C1466       C  0.87366957  0.75197027  0.71620256    -0.30300
C1467       C  0.74573064  0.62193234  0.77466405    -0.30600
N1468       N  0.72216819  0.60914402  0.74421495     0.14400
H1469       H  0.73241458  0.61554311  0.80106136     0.17000
C1470       C  0.74889101  0.62242432  0.71631476    -0.30600
H1471       H  0.73912150  0.61711842  0.68887992     0.17000
H1472       H  0.87804884  0.76170484  0.68875487     0.17000
H1473       H  0.88538075  0.61747511  0.80084849     0.17100
H1474       H  0.88345244  0.76855193  0.80092362     0.17000
C1475       C  0.66701808  0.83392312  0.53399878     0.30900
C1476       C  0.66704862  0.83385481  0.96235766     0.30900
C1477       C  0.64548638  0.85717493  0.51578573    -0.05300
C1478       C  0.71186509  0.85547058  0.51583229    -0.06100
C1479       C  0.64372855  0.78906811  0.51587513    -0.05900
C1480       C  0.64633605  0.85696344  0.97900628    -0.05300
C1481       C  0.71086508  0.85460846  0.97905375    -0.06000
C1482       C  0.64392629  0.79004407  0.97909603    -0.05900
C1483       C  0.62706566  0.87861640  0.96613435    -0.31300
N1484       N  0.61359340  0.89192693  0.49397976     0.15200
C1485       C  0.62427653  0.87913137  0.52447277    -0.31300
H1486       H  0.61730052  0.88552325  0.55084393     0.17100
C1487       C  0.75183058  0.87384118  0.96621744    -0.30300
N1488       N  0.77857911  0.88729173  0.99408520     0.13900
C1489       C  0.75504769  0.87663823  0.52456083    -0.30300
C1490       C  0.62228352  0.74906208  0.96630312    -0.30600
N1491       N  0.60898986  0.72233339  0.99420019     0.14400
H1492       H  0.61698320  0.73929717  0.93886696     0.17000
C1493       C  0.62177278  0.74589110  0.52465228    -0.30600
H1494       H  0.61537243  0.73257000  0.55104804     0.17000
H1495       H  0.76839027  0.88360354  0.55094127     0.17000
H1496       H  0.62266540  0.88390085  0.93867867     0.17100
H1497       H  0.76157187  0.87822432  0.93877132     0.17000
C1498       C  0.66691261  0.83381734  0.71600323     0.30900
C1499       C  0.66699556  0.83380694  0.78764431     0.30900
C1500       C  0.64366464  0.85535412  0.73421456    -0.05300
C1501       C  0.64536846  0.78897383  0.73417782    -0.06100
C1502       C  0.71176990  0.85711122  0.73412053    -0.05900
C1503       C  0.64388458  0.85451570  0.77099404    -0.05300
C1504       C  0.64623819  0.78998378  0.77095628    -0.06000
C1505       C  0.71080110  0.85692429  0.77089959    -0.05900
C1506       C  0.62222721  0.87378219  0.78386422    -0.31300
N1507       N  0.60890383  0.88723932  0.75601770     0.15200
C1508       C  0.62169691  0.87655179  0.72552548    -0.31300
H1509       H  0.61529446  0.88351517  0.69915361     0.17100
C1510       C  0.62700490  0.74901978  0.78379967    -0.30300
N1511       N  0.61354643  0.72226298  0.75593639     0.13900
C1512       C  0.62419561  0.74578763  0.72545691    -0.30300
C1513       C  0.75178404  0.87856481  0.78368706    -0.30600
N1514       N  0.77850677  0.89184543  0.75578688     0.14400
H1515       H  0.76155377  0.88387084  0.81112223     0.17000
C1516       C  0.75494420  0.87905719  0.72533781    -0.30600
H1517       H  0.76826013  0.88544684  0.69894053     0.17000
H1518       H  0.61722297  0.73243784  0.69907869     0.17000
H1519       H  0.61694576  0.87818758  0.81131984     0.17100
H1520       H  0.62262587  0.73928529  0.81124737     0.17000
O1521       O  0.55342470  0.98021300  0.52484118    -0.87400
C1522       C  0.56877690  0.56553358  0.94588060     0.88600
Mg1523     Mg  0.50458211  0.91332128  0.52284038     1.58100
O1524       O  0.52050809  0.57376148  0.52501622    -0.87200
O1525       O  0.57725992  0.53612872  0.55893960    -0.74500
C1526       C  0.82421575  0.90960878  0.99140519     0.93700
O1527       O  0.53614860  0.95932368  0.94092804    -0.74300
O1528       O  0.84295985  0.88889018  0.98313867    -0.81800
Mg1529     Mg  0.59173186  0.50477259  0.97698695     1.58000
C1530       C  0.90938815  0.58575514  0.50871404     0.93600
O1531       O  0.65596754  0.55152288  0.50170985    -0.80100
H1532       H  0.52312332  0.58748111  0.57642645    -0.05400
C1533       C  0.93540171  0.00407592  0.94587405     0.88500
O1534       O  0.95905928  0.92338999  0.55883346    -0.74600
O1535       O  0.57361761  0.55358288  0.97512392    -0.87300
O1536       O  0.94921909  0.60512558  0.50168634    -0.80100
C1537       C  0.58561757  0.67669445  0.99156406     0.93700
C1538       C  0.67645923  0.59138142  0.50859793     0.93500
Mg1539     Mg  0.90894366  0.99621772  0.52301530     1.58000
O1540       O  0.84470744  0.94946689  0.99829466    -0.80100
O1541       O  0.96452706  0.54166719  0.55907371    -0.74300
O1542       O  0.60494418  0.65620885  0.99851519    -0.80200
O1543       O  0.61200490  0.95472310  0.98295425    -0.81900
O1544       O  0.89573038  0.84478138  0.50148845    -0.80200
C1545       C  0.00377278  0.56889018  0.55429486     0.88000
O1546       O  0.92705822  0.94740772  0.52487749    -0.87300
O1547       O  0.94724970  0.52077691  0.97516034    -0.87400
O1548       O  0.92341564  0.96486089  0.94106207    -0.74500
Mg1549     Mg  0.58742178  0.59182337  0.52301270     1.58000
O1550       O  0.54613703  0.65794274  0.98327323    -0.80900
H1551       H  0.56452292  0.97755039  0.57624331    -0.05600
O1552       O  0.98016691  0.92722790  0.97498504    -0.87100
H1553       H  0.97755266  0.91351012  0.92357434    -0.05400
H1554       H  0.91331564  0.93615401  0.57627997    -0.05600
C1555       C  0.49690281  0.93210039  0.94570646     0.88000
C1556       C  0.56527313  0.49691352  0.55412753     0.88500
C1557       C  0.93189759  0.93545577  0.55412059     0.88600
H1558       H  0.93615198  0.52343910  0.92375782    -0.05600
O1559       O  0.54161465  0.57759874  0.94116794    -0.74600
Mg1560     Mg  0.91325319  0.90916639  0.97698923     1.58000
H1561       H  0.58735781  0.56483457  0.92372112    -0.05600
C1562       C  0.59128676  0.91523485  0.99128825     0.93600
O1563       O  0.95453840  0.84304735  0.51672712    -0.81800
C1564       C  0.91505755  0.82429575  0.50843742     0.93600
O1565       O  0.65771507  0.61210027  0.51686328    -0.81800
Mg1566     Mg  0.99609267  0.58766856  0.97716105     1.58200
O1567       O  0.55145593  0.89586463  0.99831609    -0.80100
O1568       O  0.88867018  0.54626688  0.51704798    -0.81800
O1569       O  0.52061794  0.94740748  0.72515593    -0.87400
C1570       C  0.93529403  0.93204256  0.80410845     0.88600
Mg1571     Mg  0.58750573  0.99625232  0.72716645     1.58100
O1572       O  0.92708288  0.98033008  0.72497738    -0.87200
O1573       O  0.96471284  0.92357409  0.69104857    -0.74500
C1574       C  0.59122615  0.67662499  0.75862225     0.93700
O1575       O  0.54149344  0.96466606  0.80907072    -0.74300
O1576       O  0.61194170  0.65787789  0.76688927    -0.81800
Mg1577     Mg  0.99605220  0.90908815  0.77300217     1.58000
C1578       C  0.91508394  0.59144899  0.74129435     0.93600
O1579       O  0.94930632  0.84485518  0.74826948    -0.80100
H1580       H  0.91337564  0.97773066  0.67356580    -0.05400
C1581       C  0.49674989  0.56542855  0.80413640     0.88500
O1582       O  0.57744016  0.54178121  0.69117847    -0.74600
O1583       O  0.94724374  0.92720235  0.77486458    -0.87300
O1584       O  0.89571411  0.55161347  0.74830915    -0.80100
C1585       C  0.82414455  0.91521503  0.75841851     0.93700
C1586       C  0.90944920  0.82436505  0.74138021     0.93500
Mg1587     Mg  0.50462276  0.59190207  0.72700126     1.58000
O1588       O  0.55136903  0.65613477  0.75173328    -0.80100
O1589       O  0.95918080  0.53632452  0.69093256    -0.74300
O1590       O  0.84462660  0.89588856  0.75145369    -0.80200
O1591       O  0.54610186  0.88881686  0.76703287    -0.81900
O1592       O  0.65604858  0.60510174  0.74854700    -0.80200
C1593       C  0.93196008  0.49707502  0.69570209     0.88000
O1594       O  0.55343054  0.57378706  0.72513865    -0.87300
O1595       O  0.98005703  0.55358291  0.77484738    -0.87400
O1596       O  0.53596260  0.57741502  0.80895436    -0.74500
Mg1597     Mg  0.90901559  0.91341103  0.72696989     1.58000
O1598       O  0.84289833  0.95469353  0.76672027    -0.81900
H1599       H  0.52329324  0.93631217  0.67375482    -0.05600
O1600       O  0.57359313  0.52066023  0.77502549    -0.87100
H1601       H  0.58729899  0.52325986  0.82643747    -0.05400
H1602       H  0.56468412  0.58753309  0.67373656    -0.05600
C1603       C  0.56871493  0.00391529  0.80430094     0.88000
C1604       C  0.00392544  0.93556071  0.69586700     0.88500
C1605       C  0.56538052  0.56894764  0.69589472     0.88600
H1606       H  0.97738231  0.56467627  0.82624897    -0.05600
O1607       O  0.92323486  0.95920947  0.80882428    -0.74600
Mg1608     Mg  0.59166002  0.58757912  0.77303257     1.58000
H1609       H  0.93599048  0.91345767  0.82626677    -0.05600
C1610       C  0.58559151  0.90954147  0.75870785     0.93600
O1611       O  0.65777649  0.54629615  0.73328191    -0.81800
C1612       C  0.67653046  0.58577480  0.74158312     0.93600
O1613       O  0.88873381  0.84311232  0.73311318    -0.81800
Mg1614     Mg  0.91316916  0.50473793  0.77283579     1.58200
O1615       O  0.60496072  0.94937623  0.75169049    -0.80100
O1616       O  0.95457418  0.61217424  0.73297141    -0.81800
C1617       C  0.66706027  0.83378700  0.82553436    -0.17600
C1618       C  0.66710826  0.83375956  0.85681781     0.06500
C1619       C  0.66711306  0.83376067  0.89318412     0.08300
C1620       C  0.66708028  0.83379972  0.92446758    -0.18400
C1621       C  0.66700182  0.83393067  0.57361272    -0.17600
C1622       C  0.66697482  0.83389718  0.60595239     0.06500
C1623       C  0.66692989  0.83385121  0.64404959     0.08300
C1624       C  0.66689860  0.83382538  0.67638927    -0.18400
C1625       C  0.83367249  0.66705891  0.92638942    -0.17600
C1626       C  0.83369948  0.66709251  0.89404972     0.06500
C1627       C  0.83374458  0.66713869  0.85595250     0.08300
C1628       C  0.83377606  0.66716453  0.82361281    -0.18400
C1629       C  0.83359544  0.66719124  0.57553452    -0.17600
C1630       C  0.83356264  0.66723053  0.60681798     0.06500
C1631       C  0.83356714  0.66723133  0.64318427     0.08300
C1632       C  0.83361479  0.66720335  0.67446773    -0.18400
loop_ 
_geom_bond_atom_site_label_1 
_geom_bond_atom_site_label_2 
_geom_bond_distance 
_geom_bond_site_symmetry_2 
_ccdc_geom_bond_type 
C1            C3   1.506       .  S
C1            C5   1.506       .  S
C1            C4   1.506       .  S
C1          C201   1.435       .  S
C2            C6   1.559       .  S
C2            C8   1.558       .  S
C2            C7   1.558       .  S
C2          C197   1.500       .  S
C3           C11   1.367       .  A
C3          C210   1.393   1_554  A
C4           C15   1.367       .  A
C4          C211   1.393   1_554  A
C5           C19   1.367       .  A
C5          C212   1.393   1_554  A
C6            C9   1.387       .  A
C6          C207   1.393       .  A
C7           C13   1.386       .  A
C7          C208   1.393       .  A
C8           C16   1.386       .  A
C8          C209   1.393       .  A
C9           H22   1.082       .  S
C9          N214   1.368       .  A
N10          C11   1.345       .  A
N10         C213   1.368   1_554  A
N10         C102   1.427       .  S
C11          H12   1.083       .  S
C13          H23   1.082       .  S
C13          N14   1.368       .  A
N14         C219   1.345       .  A
N14         C314   1.426       .  S
C15          H21   1.083       .  S
C15         N218   1.345       .  A
C16          H18   1.082       .  S
C16         N221   1.368       .  A
N17          C19   1.345       .  A
N17         C220   1.368   1_554  A
N17         C136   1.426       .  S
C19          H20   1.083       .  S
C24          C26   1.506       .  S
C24          C28   1.506       .  S
C24          C27   1.506       .  S
C24         C204   1.435       .  S
C25          C29   1.559       .  S
C25          C31   1.558       .  S
C25          C30   1.558       .  S
C25         C200   1.500       .  S
C26          C34   1.367       .  A
C26          C29   1.393       .  A
C27          C38   1.367       .  A
C27          C30   1.393       .  A
C28          C42   1.367       .  A
C28          C31   1.393       .  A
C29          C32   1.387       .  A
C30          C36   1.386       .  A
C31          C39   1.386       .  A
C32          H45   1.082       .  S
C32          N33   1.368       .  A
N33          C34   1.345       .  A
N33         C150   1.427       .  S
C34          H35   1.083       .  S
C36          H46   1.082       .  S
C36          N37   1.368       .  A
N37          C38   1.345       .  A
N37         C158   1.426       .  S
C38          H44   1.083       .  S
C39          H41   1.082       .  S
C39          N40   1.368       .  A
N40          C42   1.345       .  A
N40         C184   1.426       .  S
C42          H43   1.083       .  S
C47          C49   1.559       .  S
C47          C51   1.558       .  S
C47          C50   1.558       .  S
C47         C193   1.500       .  S
C48          C52   1.506       .  S
C48          C54   1.506       .  S
C48          C53   1.506       .  S
C48         C192   1.435       .  S
C49          C57   1.387       .  A
C49         C256   1.393   1_554  A
C50          C61   1.386       .  A
C50         C257   1.393   1_554  A
C51          C65   1.386       .  A
C51         C258   1.393   1_554  A
C52          C55   1.367       .  A
C52         C253   1.393       .  A
C53          C59   1.367       .  A
C53         C254   1.393       .  A
C54          C62   1.367       .  A
C54         C255   1.393       .  A
C55          H68   1.083       .  S
C55         N260   1.345       .  A
N56          C57   1.368   1_556  A
N56         C259   1.345       .  A
N56         C338   1.427       .  S
C57          H58   1.082       .  S
C59          H69   1.083       .  S
C59          N60   1.345       .  A
N60         C265   1.368       .  A
N60          C98   1.426       .  S
C61          H67   1.082       .  S
C61         N264   1.368   1_554  A
C62          H64   1.083       .  S
C62          N63   1.345       .  A
N63         C269   1.368       .  A
N63         C109   1.426       .  S
C65          H66   1.082       .  S
C65         N267   1.368   1_554  A
C70          C72   1.559       .  S
C70          C74   1.558       .  S
C70          C73   1.558       .  S
C70         C196   1.500       .  S
C71          C75   1.506       .  S
C71          C77   1.506       .  S
C71          C76   1.506       .  S
C71         C189   1.435       .  S
C72          C80   1.387       .  A
C72          C75   1.393       .  A
C73          C84   1.386       .  A
C73          C76   1.393       .  A
C74          C88   1.386       .  A
C74          C77   1.393       .  A
C75          C78   1.367       .  A
C76          C82   1.367       .  A
C77          C85   1.367       .  A
C78          H91   1.083       .  S
C78          N79   1.345       .  A
N79          C80   1.368       .  A
N79         C182   1.427       .  S
C80          H81   1.082       .  S
C82          H92   1.083       .  S
C82          N83   1.345       .  A
N83          C84   1.368       .  A
N83         C146   1.426       .  S
C84          H90   1.082       .  S
C85          H87   1.083       .  S
C85          N86   1.345       .  A
N86          C88   1.368       .  A
N86         C157   1.426       .  S
C88          H89   1.082       .  S
O93         Mg95   2.159       .  S
O93        Mg713   2.178   1_554  S
O93         C536   1.232       .  S
C94         H133   1.081       .  S
C94         O107   1.232       .  S
C94         O131   1.266       .  A
Mg95       O1144   2.179   1_454  S
Mg95        O343   2.274   1_554  S
Mg95        O951   2.267   1_455  S
Mg95        O922   2.296   1_455  S
O96        Mg121   2.160       .  S
O96       Mg1158   2.179   1_454  S
O96         C933   1.232       .  S
O97         C128   1.266   1_545  A
O97        Mg121   2.296       .  S
C98         O100   1.271       .  A
C98         O112   1.270       .  A
O99         C127   1.266   1_455  A
O99        Mg509   2.296       .  S
O100       Mg132   2.268       .  S
Mg101       O107   2.161       .  S
Mg101       O705   2.178   1_545  S
Mg101       O507   2.296   1_545  S
Mg101       O523   2.270   1_545  S
Mg101       O307   2.272       .  S
C102        O140   1.271       .  A
C102        O108   1.270       .  A
O103        C110   1.270       .  A
O103       Mg305   2.272   1_554  S
H104        C933   1.081       .  S
C105        H538   1.081       .  S
C105        O527   1.232       .  S
C105        O120   1.266       .  A
O106        C129   1.266       .  A
O106       Mg911   2.296       .  S
O107       Mg325   2.179       .  S
O108       Mg342   2.274   1_554  S
C109        O122   1.271       .  A
C109        O114   1.270       .  A
C110        N218   1.426       .  S
C110        O137   1.271       .  A
Mg111       O118   2.161       .  S
Mg111       O731   2.178   1_554  S
Mg111       O316   2.272   1_554  S
Mg111       O521   2.296       .  S
Mg111       O548   2.270       .  S
O112       Mg315   2.272       .  S
O113        C117   1.266       .  A
O113       Mg519   2.296   1_545  S
O114       Mg325   2.274       .  S
O115        C134   1.271       .  A
O115       Mg509   2.270       .  S
O116        C136   1.270       .  A
O116       Mg336   2.274   1_554  S
C117        H920   1.081       .  S
C117        O912   1.232       .  S
O118       Mg336   2.179   1_554  S
O118        C129   1.232       .  S
O119       Mg138   2.159       .  S
O119       Mg723   2.178   1_545  S
O119        C513   1.232       .  S
O120       Mg132   2.296       .  S
Mg121       O311   2.179   1_554  S
Mg121       O137   2.268       .  S
Mg121       O318   2.274   1_554  S
O122       Mg954   2.267   1_455  S
H123        C536   1.081       .  S
O124       Mg132   2.160       .  S
O124      Mg1115   2.179       .  S
O124        C943   1.232       .  S
H125        C943   1.081       .  S
H126        C129   1.081       .  S
C127        H941   1.081       .  S
C127        O940   1.232       .  S
C128        H531   1.081       .  S
C128        O501   1.232       .  S
H130        C513   1.081       .  S
O131       Mg954   2.296   1_455  S
Mg132       O322   2.179       .  S
Mg132       O320   2.274       .  S
C134        N260   1.427       .  S
C134        O139   1.270       .  A
O135        C136   1.271       .  A
O135       Mg911   2.267       .  S
Mg138      O1116   2.179       .  S
Mg138       O312   2.274       .  S
Mg138       O938   2.267       .  S
Mg138       O947   2.296       .  S
O139       Mg299   2.274       .  S
O140       Mg519   2.270   1_545  S
O141       Mg143   2.159       .  S
O141       Mg965   2.178   1_455  S
O141        C992   1.232       .  S
C142        H181   1.081       .  S
C142        O155   1.232       .  S
C142        O179   1.266       .  A
Mg143       O580   2.179       .  S
Mg143       O187   2.274       .  S
Mg143       O591   2.267       .  S
Mg143       O562   2.296       .  S
O144       Mg169   2.160       .  S
O144       Mg594   2.179       .  S
O144        C573   1.232       .  S
O145        C176   1.266       .  A
O145       Mg169   2.296       .  S
C146        O148   1.271       .  A
C146        O160   1.270       .  A
O147        C175   1.266       .  A
O147       Mg965   2.296   1_455  S
O148       Mg180   2.268       .  S
Mg149       O155   2.161       .  S
Mg149       O957   2.178       .  S
Mg149       O151   2.272       .  S
Mg149       O963   2.296       .  S
Mg149       O979   2.270       .  S
C150        O188   1.271       .  A
C150        O156   1.270       .  A
O151        C158   1.270       .  A
H152        C573   1.081       .  S
C153        H994   1.081       .  S
C153        O983   1.232       .  S
C153        O168   1.266   1_655  A
O154        C177   1.266       .  A
O154       Mg551   2.296   1_545  S
O155       Mg169   2.179       .  S
O156       Mg186   2.274       .  S
C157        O170   1.271       .  A
C157        O162   1.270       .  A
C158        O185   1.271       .  A
Mg159       O166   2.161       .  S
Mg159       O983   2.178   1_455  S
Mg159       O160   2.272       .  S
Mg159       O977   2.296   1_455  S
Mg159      O1004   2.270   1_455  S
O161        C165   1.266   1_545  A
O161       Mg975   2.296       .  S
O162       Mg169   2.274       .  S
O163        C182   1.271       .  A
O163       Mg965   2.270   1_455  S
O164        C184   1.270       .  A
O164       Mg180   2.274       .  S
C165        H560   1.081       .  S
C165        O552   1.232       .  S
O166       Mg180   2.179       .  S
O166        C177   1.232       .  S
O167       Mg186   2.159       .  S
O167       Mg975   2.178       .  S
O167        C969   1.232       .  S
O168       Mg180   2.296       .  S
Mg169       O185   2.268       .  S
O170       Mg594   2.267       .  S
H171        C992   1.081       .  S
O172       Mg180   2.160       .  S
O172       Mg551   2.179   1_545  S
O172        C583   1.232       .  S
H173        C583   1.081       .  S
H174        C177   1.081       .  S
C175        H581   1.081       .  S
C175        O580   1.232       .  S
C176        H987   1.081       .  S
C176        O957   1.232       .  S
H178        C969   1.081       .  S
O179       Mg594   2.296       .  S
C182        O187   1.270       .  A
O183        C184   1.271       .  A
O183       Mg551   2.267   1_545  S
Mg186       O552   2.179   1_545  S
Mg186       O578   2.267   1_545  S
Mg186       O587   2.296   1_545  S
O188       Mg975   2.270       .  S
C189        C190   1.185       .  T
C190        C191   1.377       .  S
C191        C192   1.185       .  T
C193        C194   1.225       .  T
C194        C195   1.443       .  S
C195        C196   1.225       .  T
C197        C198   1.225       .  T
C198        C199   1.443       .  S
C199        C200   1.225       .  T
C201        C202   1.185       .  T
C202        C203   1.377       .  S
C203        C204   1.185       .  T
C205        C207   1.506       .  S
C205        C209   1.506       .  S
C205        C208   1.506       .  S
C205        C405   1.435       .  S
C206        C210   1.559       .  S
C206        C212   1.558       .  S
C206        C211   1.558       .  S
C206        C401   1.500       .  S
C207        C215   1.367       .  A
C208        C219   1.367       .  A
C209        C223   1.367       .  A
C210        C213   1.387       .  A
C211        C217   1.386       .  A
C212        C220   1.386       .  A
C213        H226   1.082       .  S
N214        C215   1.345       .  A
N214        C306   1.427       .  S
C215        H216   1.083       .  S
C217        H227   1.082       .  S
C217        N218   1.368   1_556  A
C219        H225   1.083       .  S
C220        H222   1.082       .  S
N221        C223   1.345       .  A
N221        C340   1.426       .  S
C223        H224   1.083       .  S
C228        C230   1.506       .  S
C228        C232   1.506       .  S
C228        C231   1.506       .  S
C228        C408   1.435       .  S
C229        C233   1.559       .  S
C229        C235   1.558       .  S
C229        C234   1.558       .  S
C229        C404   1.500       .  S
C230        C238   1.367       .  A
C230        C233   1.393       .  A
C231        C242   1.367       .  A
C231        C234   1.393       .  A
C232        C246   1.367       .  A
C232        C235   1.393       .  A
C233        C236   1.387       .  A
C234        C240   1.386       .  A
C235        C243   1.386       .  A
C236        H249   1.082       .  S
C236        N237   1.368       .  A
N237        C238   1.345       .  A
N237        C354   1.427       .  S
C238        H239   1.083       .  S
C240        H250   1.082       .  S
C240        N241   1.368       .  A
N241        C242   1.345       .  A
N241        C362   1.426       .  S
C242        H248   1.083       .  S
C243        H245   1.082       .  S
C243        N244   1.368       .  A
N244        C246   1.345       .  A
N244        C388   1.426       .  S
C246        H247   1.083       .  S
C251        C253   1.559       .  S
C251        C255   1.558       .  S
C251        C254   1.558       .  S
C251        C397   1.500       .  S
C252        C256   1.506       .  S
C252        C258   1.506       .  S
C252        C257   1.506       .  S
C252        C396   1.435       .  S
C253        C261   1.387       .  A
C254        C265   1.386       .  A
C255        C269   1.386       .  A
C256        C259   1.367       .  A
C257        C263   1.367       .  A
C258        C266   1.367       .  A
C259        H272   1.083       .  S
N260        C261   1.368       .  A
C261        H262   1.082       .  S
C263        H273   1.083       .  S
C263        N264   1.345       .  A
N264        C302   1.426       .  S
C265        H271   1.082       .  S
C266        H268   1.083       .  S
C266        N267   1.345       .  A
N267        C313   1.426       .  S
C269        H270   1.082       .  S
C274        C276   1.559       .  S
C274        C278   1.558       .  S
C274        C277   1.558       .  S
C274        C400   1.500       .  S
C275        C279   1.506       .  S
C275        C281   1.506       .  S
C275        C280   1.506       .  S
C275        C393   1.435       .  S
C276        C284   1.387       .  A
C276        C279   1.393       .  A
C277        C288   1.386       .  A
C277        C280   1.393       .  A
C278        C292   1.386       .  A
C278        C281   1.393       .  A
C279        C282   1.367       .  A
C280        C286   1.367       .  A
C281        C289   1.367       .  A
C282        H295   1.083       .  S
C282        N283   1.345       .  A
N283        C284   1.368       .  A
N283        C386   1.427       .  S
C284        H285   1.082       .  S
C286        H296   1.083       .  S
C286        N287   1.345       .  A
N287        C288   1.368       .  A
N287        C350   1.426       .  S
C288        H294   1.082       .  S
C289        H291   1.083       .  S
C289        N290   1.345       .  A
N290        C292   1.368       .  A
N290        C361   1.426       .  S
C292        H293   1.082       .  S
O297       Mg299   2.159       .  S
O297       Mg509   2.178       .  S
O297        C740   1.232       .  S
C298        H337   1.081       .  S
C298        O311   1.232       .  S
C298        O335   1.266       .  A
Mg299       O940   2.179   1_455  S
Mg299      O1155   2.267   1_455  S
Mg299      O1126   2.296   1_455  S
O300       Mg954   2.179   1_455  S
O300       Mg325   2.160       .  S
O300       C1137   1.232       .  S
O301        C332   1.266   1_545  A
O301       Mg325   2.296       .  S
C302        O304   1.271       .  A
C302        O316   1.270       .  A
O303        C331   1.266   1_455  A
O303       Mg713   2.296       .  S
O304       Mg336   2.268       .  S
Mg305       O501   2.178   1_546  S
Mg305       O311   2.161       .  S
Mg305       O711   2.296   1_545  S
Mg305       O727   2.270   1_545  S
C306        O344   1.271       .  A
C306        O312   1.270       .  A
O307        C314   1.270       .  A
H308       C1137   1.081       .  S
C309        H742   1.081       .  S
C309        O731   1.232       .  S
C309        O324   1.266       .  A
O310        C333   1.266       .  A
O310      Mg1115   2.296       .  S
C313        O326   1.271       .  A
C313        O318   1.270       .  A
C314        O341   1.271       .  A
Mg315       O322   2.161       .  S
Mg315       O527   2.178       .  S
Mg315       O725   2.296       .  S
Mg315       O752   2.270       .  S
O317        C321   1.266       .  A
O317       Mg723   2.296   1_545  S
O319        C338   1.271       .  A
O319       Mg713   2.270       .  S
O320        C340   1.270       .  A
C321       H1124   1.081       .  S
C321       O1116   1.232       .  S
O322        C333   1.232       .  S
O323       Mg519   2.178   1_546  S
O323       Mg342   2.159       .  S
O323        C717   1.232       .  S
O324       Mg336   2.296       .  S
Mg325       O341   2.268       .  S
O326      Mg1158   2.267   1_455  S
H327        C740   1.081       .  S
O328       Mg911   2.179   1_556  S
O328       Mg336   2.160       .  S
O328       C1147   1.232       .  S
H329       C1147   1.081       .  S
H330        C333   1.081       .  S
C331       H1145   1.081       .  S
C331       O1144   1.232       .  S
C332        H735   1.081       .  S
C332        O705   1.232       .  S
H334        C717   1.081       .  S
O335      Mg1158   2.296   1_455  S
C338        O343   1.270       .  A
O339        C340   1.271       .  A
O339      Mg1115   2.267       .  S
Mg342       O912   2.179   1_556  S
Mg342      O1142   2.267       .  S
Mg342      O1151   2.296       .  S
O344       Mg723   2.270   1_545  S
O345       Mg347   2.159       .  S
O345      Mg1169   2.178   1_455  S
O345       C1196   1.232       .  S
C346        H385   1.081       .  S
C346        O359   1.232       .  S
C346        O383   1.266       .  A
Mg347       O784   2.179       .  S
Mg347       O391   2.274       .  S
Mg347       O795   2.267       .  S
Mg347       O766   2.296       .  S
O348       Mg798   2.179       .  S
O348       Mg373   2.160       .  S
O348        C777   1.232       .  S
O349        C380   1.266       .  A
O349       Mg373   2.296       .  S
C350        O352   1.271       .  A
C350        O364   1.270       .  A
O351        C379   1.266       .  A
O351      Mg1169   2.296   1_455  S
O352       Mg384   2.268       .  S
Mg353      O1161   2.178       .  S
Mg353       O359   2.161       .  S
Mg353      O1167   2.296       .  S
Mg353      O1183   2.270       .  S
Mg353       O355   2.272       .  S
C354        O392   1.271       .  A
C354        O360   1.270       .  A
O355        C362   1.270       .  A
H356        C777   1.081       .  S
C357       H1198   1.081       .  S
C357       O1187   1.232       .  S
C357        O372   1.266   1_655  A
O358        C381   1.266       .  A
O358       Mg755   2.296   1_545  S
O359       Mg373   2.179       .  S
O360       Mg390   2.274       .  S
C361        O374   1.271       .  A
C361        O366   1.270       .  A
C362        O389   1.271       .  A
Mg363       O370   2.161       .  S
Mg363      O1187   2.178   1_455  S
Mg363       O364   2.272       .  S
Mg363      O1181   2.296   1_455  S
Mg363      O1208   2.270   1_455  S
O365        C369   1.266   1_545  A
O365      Mg1179   2.296       .  S
O366       Mg373   2.274       .  S
O367        C386   1.271       .  A
O367      Mg1169   2.270   1_455  S
O368        C388   1.270       .  A
O368       Mg384   2.274       .  S
C369        H764   1.081       .  S
C369        O756   1.232       .  S
O370       Mg384   2.179       .  S
O370        C381   1.232       .  S
O371      Mg1179   2.178       .  S
O371       Mg390   2.159       .  S
O371       C1173   1.232       .  S
O372       Mg384   2.296       .  S
Mg373       O389   2.268       .  S
O374       Mg798   2.267       .  S
H375       C1196   1.081       .  S
O376       Mg755   2.179   1_545  S
O376       Mg384   2.160       .  S
O376        C787   1.232       .  S
H377        C787   1.081       .  S
H378        C381   1.081       .  S
C379        H785   1.081       .  S
C379        O784   1.232       .  S
C380       H1191   1.081       .  S
C380       O1161   1.232       .  S
H382       C1173   1.081       .  S
O383       Mg798   2.296       .  S
C386        O391   1.270       .  A
O387        C388   1.271       .  A
O387       Mg755   2.267   1_545  S
Mg390       O756   2.179   1_545  S
Mg390       O782   2.267   1_545  S
Mg390       O791   2.296   1_545  S
O392      Mg1179   2.270       .  S
C393        C394   1.185       .  T
C394        C395   1.377       .  S
C395        C396   1.185       .  T
C397        C398   1.225       .  T
C398        C399   1.443       .  S
C399        C400   1.225       .  T
C401        C402   1.225       .  T
C402        C403   1.443       .  S
C403        C404   1.225       .  T
C405        C406   1.185       .  T
C406        C407   1.377       .  S
C407        C408   1.185       .  T
C409        C411   1.506       .  S
C409        C413   1.506       .  S
C409        C412   1.506       .  S
C409        C609   1.435       .  S
C410        C414   1.559       .  S
C410        C416   1.558       .  S
C410        C415   1.558       .  S
C410        C605   1.500       .  S
C411        C419   1.367       .  A
C411        C618   1.393   1_554  A
C412        C423   1.367       .  A
C412        C619   1.393   1_554  A
C413        C427   1.367       .  A
C413        C620   1.393   1_554  A
C414        C615   1.393       .  A
C414        C417   1.387       .  A
C415        C616   1.393       .  A
C415        C421   1.386       .  A
C416        C617   1.393       .  A
C416        C424   1.386       .  A
C417        H430   1.082       .  S
C417        N622   1.368       .  A
N418        C621   1.368   1_554  A
N418        C419   1.345       .  A
N418        C510   1.427       .  S
C419        H420   1.083       .  S
C421        H431   1.082       .  S
C421        N422   1.368       .  A
N422        C627   1.345       .  A
N422        C722   1.426       .  S
C423        H429   1.083       .  S
C423        N626   1.345       .  A
C424        H426   1.082       .  S
C424        N629   1.368       .  A
N425        C628   1.368   1_554  A
N425        C427   1.345       .  A
N425        C544   1.426       .  S
C427        H428   1.083       .  S
C432        C434   1.506       .  S
C432        C436   1.506       .  S
C432        C435   1.506       .  S
C432        C612   1.435       .  S
C433        C437   1.559       .  S
C433        C439   1.558       .  S
C433        C438   1.558       .  S
C433        C608   1.500       .  S
C434        C442   1.367       .  A
C434        C437   1.393       .  A
C435        C446   1.367       .  A
C435        C438   1.393       .  A
C436        C450   1.367       .  A
C436        C439   1.393       .  A
C437        C440   1.387       .  A
C438        C444   1.386       .  A
C439        C447   1.386       .  A
C440        H453   1.082       .  S
C440        N441   1.368       .  A
N441        C442   1.345       .  A
N441        C558   1.427       .  S
C442        H443   1.083       .  S
C444        H454   1.082       .  S
C444        N445   1.368       .  A
N445        C446   1.345       .  A
N445        C566   1.426       .  S
C446        H452   1.083       .  S
C447        H449   1.082       .  S
C447        N448   1.368       .  A
N448        C450   1.345       .  A
N448        C592   1.426       .  S
C450        H451   1.083       .  S
C455        C457   1.559       .  S
C455        C459   1.558       .  S
C455        C458   1.558       .  S
C455        C601   1.500       .  S
C456        C460   1.506       .  S
C456        C462   1.506       .  S
C456        C461   1.506       .  S
C456        C600   1.435       .  S
C457        C465   1.387       .  A
C457        C664   1.393   1_554  A
C458        C469   1.386       .  A
C458        C665   1.393   1_554  A
C459        C473   1.386       .  A
C459        C666   1.393   1_554  A
C460        C661   1.393       .  A
C460        C463   1.367       .  A
C461        C662   1.393       .  A
C461        C467   1.367       .  A
C462        C663   1.393       .  A
C462        C470   1.367       .  A
C463        H476   1.083       .  S
C463        N668   1.345       .  A
N464        C667   1.345       .  A
N464        C465   1.368   1_556  A
N464        C746   1.427       .  S
C465        H466   1.082       .  S
C467        H477   1.083       .  S
C467        N468   1.345       .  A
N468        C673   1.368       .  A
N468        C506   1.426       .  S
C469        H475   1.082       .  S
C469        N672   1.368   1_554  A
C470        H472   1.083       .  S
C470        N471   1.345       .  A
N471        C677   1.368       .  A
N471        C517   1.426       .  S
C473        H474   1.082       .  S
C473        N675   1.368   1_554  A
C478        C480   1.559       .  S
C478        C482   1.558       .  S
C478        C481   1.558       .  S
C478        C604   1.500       .  S
C479        C483   1.506       .  S
C479        C485   1.506       .  S
C479        C484   1.506       .  S
C479        C597   1.435       .  S
C480        C488   1.387       .  A
C480        C483   1.393       .  A
C481        C492   1.386       .  A
C481        C484   1.393       .  A
C482        C496   1.386       .  A
C482        C485   1.393       .  A
C483        C486   1.367       .  A
C484        C490   1.367       .  A
C485        C493   1.367       .  A
C486        H499   1.083       .  S
C486        N487   1.345       .  A
N487        C488   1.368       .  A
N487        C590   1.427       .  S
C488        H489   1.082       .  S
C490        H500   1.083       .  S
C490        N491   1.345       .  A
N491        C492   1.368       .  A
N491        C554   1.426       .  S
C492        H498   1.082       .  S
C493        H495   1.083       .  S
C493        N494   1.345       .  A
N494        C496   1.368       .  A
N494        C565   1.426       .  S
C496        H497   1.082       .  S
O501       Mg503   2.159       .  S
C502        H541   1.081       .  S
C502        O515   1.232       .  S
C502        O539   1.266       .  A
Mg503      O1552   2.179   1_454  S
Mg503       O751   2.274   1_554  S
Mg503      O1359   2.267   1_455  S
Mg503      O1330   2.296   1_455  S
O504      Mg1566   2.179   1_454  S
O504       Mg529   2.160       .  S
O504       C1341   1.232       .  S
O505        C536   1.266       .  A
O505       Mg529   2.296       .  S
C506        O508   1.271       .  A
C506        O520   1.270       .  A
O507        C535   1.266   1_455  A
O508       Mg540   2.268       .  S
Mg509       O515   2.161       .  S
Mg509       O715   2.272       .  S
C510        O548   1.271       .  A
C510        O516   1.270       .  A
O511        C518   1.270       .  A
O511       Mg713   2.272   1_554  S
H512       C1341   1.081       .  S
C513        O528   1.266   1_545  A
O514        C537   1.266       .  A
O514      Mg1319   2.296       .  S
O515       Mg733   2.179       .  S
O516       Mg750   2.274   1_554  S
C517        O530   1.271       .  A
C517        O522   1.270       .  A
C518        N626   1.426       .  S
C518        O545   1.271       .  A
Mg519       O526   2.161       .  S
Mg519       O724   2.272   1_554  S
O520       Mg723   2.272       .  S
O521        C525   1.266       .  A
O522       Mg733   2.274       .  S
O523        C542   1.271       .  A
O524        C544   1.270       .  A
O524       Mg744   2.274   1_554  S
C525       H1328   1.081       .  S
C525       O1320   1.232       .  S
O526       Mg744   2.179   1_554  S
O526        C537   1.232       .  S
O527       Mg546   2.159       .  S
O528       Mg540   2.296       .  S
Mg529       O719   2.179   1_554  S
Mg529       O726   2.274   1_554  S
Mg529       O545   2.268       .  S
O530      Mg1362   2.267   1_455  S
O532      Mg1523   2.179       .  S
O532       Mg540   2.160       .  S
O532       C1351   1.232       .  S
H533       C1351   1.081       .  S
H534        C537   1.081       .  S
C535       H1349   1.081       .  S
C535       O1348   1.232       .  S
O539      Mg1362   2.296   1_455  S
Mg540       O730   2.179       .  S
Mg540       O728   2.274       .  S
C542        N668   1.427       .  S
C542        O547   1.270       .  A
O543        C544   1.271       .  A
O543      Mg1319   2.267       .  S
Mg546      O1524   2.179       .  S
Mg546       O720   2.274       .  S
Mg546      O1346   2.267       .  S
Mg546      O1355   2.296       .  S
O547       Mg707   2.274       .  S
O549       Mg551   2.159       .  S
O549      Mg1373   2.178   1_455  S
O549       C1400   1.232       .  S
C550        H589   1.081       .  S
C550        O563   1.232       .  S
C550        O587   1.266       .  A
Mg551       O595   2.274       .  S
O552       Mg577   2.160       .  S
O553        C584   1.266       .  A
O553       Mg577   2.296       .  S
C554        O556   1.271       .  A
C554        O568   1.270       .  A
O555        C583   1.266   1_565  A
O555      Mg1373   2.296   1_455  S
O556       Mg588   2.268       .  S
Mg557      O1365   2.178       .  S
Mg557       O563   2.161       .  S
Mg557      O1371   2.296       .  S
Mg557      O1387   2.270       .  S
Mg557       O559   2.272       .  S
C558        O596   1.271       .  A
C558        O564   1.270       .  A
O559        C566   1.270       .  A
C561       H1402   1.081       .  S
C561       O1391   1.232       .  S
C561        O576   1.266   1_655  A
O562        C585   1.266       .  A
O563       Mg577   2.179       .  S
O564       Mg594   2.274       .  S
C565        O578   1.271       .  A
C565        O570   1.270       .  A
C566        O593   1.271       .  A
Mg567       O574   2.161       .  S
Mg567      O1391   2.178   1_455  S
Mg567       O568   2.272       .  S
Mg567      O1385   2.296   1_455  S
Mg567      O1412   2.270   1_455  S
O569        C573   1.266       .  A
O569      Mg1383   2.296       .  S
O570       Mg577   2.274       .  S
O571        C590   1.271       .  A
O571      Mg1373   2.270   1_455  S
O572        C592   1.270       .  A
O572       Mg588   2.274       .  S
O574       Mg588   2.179       .  S
O574        C585   1.232       .  S
O575      Mg1383   2.178       .  S
O575       Mg594   2.159       .  S
O575       C1377   1.232       .  S
O576       Mg588   2.296       .  S
Mg577       O593   2.268       .  S
H579       C1400   1.081       .  S
O580       Mg588   2.160       .  S
H582        C585   1.081       .  S
C584       H1395   1.081       .  S
C584       O1365   1.232       .  S
H586       C1377   1.081       .  S
C590        O595   1.270       .  A
O591        C592   1.271       .  A
O596      Mg1383   2.270       .  S
C597        C598   1.185       .  T
C598        C599   1.377       .  S
C599        C600   1.185       .  T
C601        C602   1.225       .  T
C602        C603   1.443       .  S
C603        C604   1.225       .  T
C605        C606   1.225       .  T
C606        C607   1.443       .  S
C607        C608   1.225       .  T
C609        C610   1.185       .  T
C610        C611   1.377       .  S
C611        C612   1.185       .  T
C613        C615   1.506       .  S
C613        C617   1.506       .  S
C613        C616   1.506       .  S
C613        C813   1.435       .  S
C614        C618   1.559       .  S
C614        C620   1.558       .  S
C614        C619   1.558       .  S
C614        C809   1.500       .  S
C615        C623   1.367       .  A
C616        C627   1.367       .  A
C617        C631   1.367       .  A
C618        C621   1.387       .  A
C619        C625   1.386       .  A
C620        C628   1.386       .  A
C621        H634   1.082       .  S
N622        C623   1.345       .  A
N622        C714   1.427       .  S
C623        H624   1.083       .  S
C625        H635   1.082       .  S
C625        N626   1.368   1_556  A
C627        H633   1.083       .  S
C628        H630   1.082       .  S
N629        C631   1.345       .  A
N629        C748   1.426       .  S
C631        H632   1.083       .  S
C636        C638   1.506       .  S
C636        C640   1.506       .  S
C636        C639   1.506       .  S
C636        C816   1.435       .  S
C637        C641   1.559       .  S
C637        C643   1.558       .  S
C637        C642   1.558       .  S
C637        C812   1.500       .  S
C638        C646   1.367       .  A
C638        C641   1.393       .  A
C639        C650   1.367       .  A
C639        C642   1.393       .  A
C640        C654   1.367       .  A
C640        C643   1.393       .  A
C641        C644   1.387       .  A
C642        C648   1.386       .  A
C643        C651   1.386       .  A
C644        H657   1.082       .  S
C644        N645   1.368       .  A
N645        C646   1.345       .  A
N645        C762   1.427       .  S
C646        H647   1.083       .  S
C648        H658   1.082       .  S
C648        N649   1.368       .  A
N649        C650   1.345       .  A
N649        C770   1.426       .  S
C650        H656   1.083       .  S
C651        H653   1.082       .  S
C651        N652   1.368       .  A
N652        C654   1.345       .  A
N652        C796   1.426       .  S
C654        H655   1.083       .  S
C659        C661   1.559       .  S
C659        C663   1.558       .  S
C659        C662   1.558       .  S
C659        C805   1.500       .  S
C660        C664   1.506       .  S
C660        C666   1.506       .  S
C660        C665   1.506       .  S
C660        C804   1.435       .  S
C661        C669   1.387       .  A
C662        C673   1.386       .  A
C663        C677   1.386       .  A
C664        C667   1.367       .  A
C665        C671   1.367       .  A
C666        C674   1.367       .  A
C667        H680   1.083       .  S
N668        C669   1.368       .  A
C669        H670   1.082       .  S
C671        H681   1.083       .  S
C671        N672   1.345       .  A
N672        C710   1.426       .  S
C673        H679   1.082       .  S
C674        H676   1.083       .  S
C674        N675   1.345       .  A
N675        C721   1.426       .  S
C677        H678   1.082       .  S
C682        C684   1.559       .  S
C682        C686   1.558       .  S
C682        C685   1.558       .  S
C682        C808   1.500       .  S
C683        C687   1.506       .  S
C683        C689   1.506       .  S
C683        C688   1.506       .  S
C683        C801   1.435       .  S
C684        C692   1.387       .  A
C684        C687   1.393       .  A
C685        C696   1.386       .  A
C685        C688   1.393       .  A
C686        C700   1.386       .  A
C686        C689   1.393       .  A
C687        C690   1.367       .  A
C688        C694   1.367       .  A
C689        C697   1.367       .  A
C690        H703   1.083       .  S
C690        N691   1.345       .  A
N691        C692   1.368       .  A
N691        C794   1.427       .  S
C692        H693   1.082       .  S
C694        H704   1.083       .  S
C694        N695   1.345       .  A
N695        C696   1.368       .  A
N695        C758   1.426       .  S
C696        H702   1.082       .  S
C697        H699   1.083       .  S
C697        N698   1.345       .  A
N698        C700   1.368       .  A
N698        C769   1.426       .  S
C700        H701   1.082       .  S
O705       Mg707   2.159       .  S
C706        H745   1.081       .  S
C706        O719   1.232       .  S
C706        O743   1.266       .  A
Mg707      O1348   2.179   1_455  S
Mg707      O1563   2.267   1_455  S
Mg707      O1534   2.296   1_455  S
O708      Mg1362   2.179   1_455  S
O708       Mg733   2.160       .  S
O708       C1545   1.232       .  S
O709        C740   1.266       .  A
O709       Mg733   2.296       .  S
C710        O712   1.271       .  A
C710        O724   1.270       .  A
O711        C739   1.266   1_455  A
O712       Mg744   2.268       .  S
Mg713       O719   2.161       .  S
C714        O752   1.271       .  A
C714        O720   1.270       .  A
O715        C722   1.270       .  A
H716       C1545   1.081       .  S
C717        O732   1.266   1_545  A
O718        C741   1.266       .  A
O718      Mg1523   2.296       .  S
C721        O734   1.271       .  A
C721        O726   1.270       .  A
C722        O749   1.271       .  A
Mg723       O730   2.161       .  S
O725        C729   1.266       .  A
O727        C746   1.271       .  A
O728        C748   1.270       .  A
C729       H1532   1.081       .  S
C729       O1524   1.232       .  S
O730        C741   1.232       .  S
O731       Mg750   2.159       .  S
O732       Mg744   2.296       .  S
Mg733       O749   2.268       .  S
O734      Mg1566   2.267   1_455  S
O736      Mg1319   2.179   1_556  S
O736       Mg744   2.160       .  S
O736       C1555   1.232       .  S
H737       C1555   1.081       .  S
H738        C741   1.081       .  S
C739       H1553   1.081       .  S
C739       O1552   1.232       .  S
O743      Mg1566   2.296   1_455  S
C746        O751   1.270       .  A
O747        C748   1.271       .  A
O747      Mg1523   2.267       .  S
Mg750      O1320   2.179   1_556  S
Mg750      O1550   2.267       .  S
Mg750      O1559   2.296       .  S
O753       Mg755   2.158       .  S
O753      Mg1577   2.178   1_455  S
O753       C1604   1.232       .  S
C754        H793   1.081       .  S
C754        O767   1.232       .  S
C754        O791   1.266       .  A
Mg755       O799   2.274       .  S
O756       Mg781   2.160       .  S
O757        C788   1.266       .  A
O757       Mg781   2.296       .  S
C758        O760   1.271       .  A
C758        O772   1.270       .  A
O759        C787   1.266   1_565  A
O759      Mg1577   2.296   1_455  S
O760       Mg792   2.268       .  S
Mg761      O1569   2.178       .  S
Mg761       O767   2.161       .  S
Mg761      O1575   2.296       .  S
Mg761      O1591   2.270       .  S
Mg761       O763   2.272       .  S
C762        O800   1.271       .  A
C762        O768   1.270       .  A
O763        C770   1.270       .  A
C765       H1606   1.081       .  S
C765       O1595   1.232       .  S
C765        O780   1.266   1_655  A
O766        C789   1.266       .  A
O767       Mg781   2.179       .  S
O768       Mg798   2.274       .  S
C769        O782   1.271       .  A
C769        O774   1.270       .  A
C770        O797   1.271       .  A
Mg771       O778   2.161       .  S
Mg771      O1595   2.178   1_455  S
Mg771       O772   2.272       .  S
Mg771      O1589   2.296   1_455  S
Mg771      O1616   2.270   1_455  S
O773        C777   1.266       .  A
O773      Mg1587   2.296       .  S
O774       Mg781   2.274       .  S
O775        C794   1.271       .  A
O775      Mg1577   2.270   1_455  S
O776        C796   1.270       .  A
O776       Mg792   2.274       .  S
O778       Mg792   2.179       .  S
O778        C789   1.232       .  S
O779      Mg1587   2.178       .  S
O779       Mg798   2.159       .  S
O779       C1581   1.232       .  S
O780       Mg792   2.296       .  S
Mg781       O797   2.268       .  S
H783       C1604   1.081       .  S
O784       Mg792   2.160       .  S
H786        C789   1.081       .  S
C788       H1599   1.081       .  S
C788       O1569   1.232       .  S
H790       C1581   1.081       .  S
C794        O799   1.270       .  A
O795        C796   1.271       .  A
O800      Mg1587   2.270       .  S
C801        C802   1.185       .  T
C802        C803   1.377       .  S
C803        C804   1.185       .  T
C805        C806   1.225       .  T
C806        C807   1.443       .  S
C807        C808   1.225       .  T
C809        C810   1.225       .  T
C810        C811   1.443       .  S
C811        C812   1.225       .  T
C813        C814   1.185       .  T
C814        C815   1.377       .  S
C815        C816   1.185       .  T
C817        C819   1.506       .  S
C817        C821   1.506       .  S
C817        C820   1.506       .  S
C817       C1017   1.435       .  S
C818        C822   1.559       .  S
C818        C824   1.558       .  S
C818        C823   1.558       .  S
C818       C1013   1.500       .  S
C819        C827   1.367       .  A
C819       C1026   1.393   1_554  A
C820        C831   1.367       .  A
C820       C1027   1.393   1_554  A
C821        C835   1.367       .  A
C821       C1028   1.393   1_554  A
C822       C1023   1.393       .  A
C822        C825   1.387       .  A
C823       C1024   1.393       .  A
C823        C829   1.386       .  A
C824       C1025   1.393       .  A
C824        C832   1.386       .  A
C825        H838   1.082       .  S
C825       N1030   1.368       .  A
N826       C1029   1.368   1_554  A
N826        C827   1.345       .  A
N826        C918   1.427       .  S
C827        H828   1.083       .  S
C829        H839   1.082       .  S
C829        N830   1.368       .  A
N830       C1035   1.345       .  A
N830       C1130   1.426       .  S
C831        H837   1.083       .  S
C831       N1034   1.345       .  A
C832        H834   1.082       .  S
C832       N1037   1.368       .  A
N833       C1036   1.368   1_554  A
N833        C835   1.345       .  A
N833        C952   1.426       .  S
C835        H836   1.083       .  S
C840        C842   1.506       .  S
C840        C844   1.506       .  S
C840        C843   1.506       .  S
C840       C1020   1.435       .  S
C841        C845   1.559       .  S
C841        C847   1.558       .  S
C841        C846   1.558       .  S
C841       C1016   1.500       .  S
C842        C850   1.367       .  A
C842        C845   1.393       .  A
C843        C854   1.367       .  A
C843        C846   1.393       .  A
C844        C858   1.367       .  A
C844        C847   1.393       .  A
C845        C848   1.387       .  A
C846        C852   1.386       .  A
C847        C855   1.386       .  A
C848        H861   1.082       .  S
C848        N849   1.368       .  A
N849        C850   1.345       .  A
N849        C966   1.427       .  S
C850        H851   1.083       .  S
C852        H862   1.082       .  S
C852        N853   1.368       .  A
N853        C854   1.345       .  A
N853        C974   1.426       .  S
C854        H860   1.083       .  S
C855        H857   1.082       .  S
C855        N856   1.368       .  A
N856        C858   1.345       .  A
N856       C1000   1.426       .  S
C858        H859   1.083       .  S
C863        C865   1.559       .  S
C863        C867   1.558       .  S
C863        C866   1.558       .  S
C863       C1009   1.500       .  S
C864        C868   1.506       .  S
C864        C870   1.506       .  S
C864        C869   1.506       .  S
C864       C1008   1.435       .  S
C865        C873   1.387       .  A
C865       C1072   1.393   1_554  A
C866        C877   1.386       .  A
C866       C1073   1.393   1_554  A
C867        C881   1.386       .  A
C867       C1074   1.393   1_554  A
C868       C1069   1.393       .  A
C868        C871   1.367       .  A
C869       C1070   1.393       .  A
C869        C875   1.367       .  A
C870       C1071   1.393       .  A
C870        C878   1.367       .  A
C871        H884   1.083       .  S
C871       N1076   1.345       .  A
N872       C1075   1.345       .  A
N872        C873   1.368   1_556  A
N872       C1154   1.427       .  S
C873        H874   1.082       .  S
C875        H885   1.083       .  S
C875        N876   1.345       .  A
N876       C1081   1.368       .  A
N876        C914   1.426       .  S
C877        H883   1.082       .  S
C877       N1080   1.368   1_554  A
C878        H880   1.083       .  S
C878        N879   1.345       .  A
N879       C1085   1.368       .  A
N879        C925   1.426       .  S
C881        H882   1.082       .  S
C881       N1083   1.368   1_554  A
C886        C888   1.559       .  S
C886        C890   1.558       .  S
C886        C889   1.558       .  S
C886       C1012   1.500       .  S
C887        C891   1.506       .  S
C887        C893   1.506       .  S
C887        C892   1.506       .  S
C887       C1005   1.435       .  S
C888        C896   1.387       .  A
C888        C891   1.393       .  A
C889        C900   1.386       .  A
C889        C892   1.393       .  A
C890        C904   1.386       .  A
C890        C893   1.393       .  A
C891        C894   1.367       .  A
C892        C898   1.367       .  A
C893        C901   1.367       .  A
C894        H907   1.083       .  S
C894        N895   1.345       .  A
N895        C896   1.368       .  A
N895        C998   1.427       .  S
C896        H897   1.082       .  S
C898        H908   1.083       .  S
C898        N899   1.345       .  A
N899        C900   1.368       .  A
N899        C962   1.426       .  S
C900        H906   1.082       .  S
C901        H903   1.083       .  S
C901        N902   1.345       .  A
N902        C904   1.368       .  A
N902        C973   1.426       .  S
C904        H905   1.082       .  S
O909       Mg911   2.159       .  S
O909      Mg1529   2.178   1_554  S
O909       C1352   1.232       .  S
C910        H949   1.081       .  S
C910        O923   1.232       .  S
C910        O947   1.266       .  A
Mg911      O1159   2.274   1_554  S
O912       Mg937   2.160       .  S
O913        C944   1.266   1_545  A
O913       Mg937   2.296       .  S
C914        O916   1.271       .  A
C914        O928   1.270       .  A
O915        C943   1.266       .  A
O915      Mg1325   2.296       .  S
O916       Mg948   2.268       .  S
Mg917      O1521   2.178   1_545  S
Mg917       O923   2.161       .  S
Mg917      O1323   2.296   1_545  S
Mg917      O1339   2.270   1_545  S
Mg917      O1123   2.272       .  S
C918        O956   1.271       .  A
C918        O924   1.270       .  A
O919        C926   1.270       .  A
O919      Mg1121   2.272   1_554  S
C921       H1354   1.081       .  S
C921       O1343   1.232       .  S
C921        O936   1.266       .  A
O922        C945   1.266       .  A
O923      Mg1141   2.179       .  S
O924      Mg1158   2.274   1_554  S
C925        O938   1.271       .  A
C925        O930   1.270       .  A
C926       N1034   1.426       .  S
C926        O953   1.271       .  A
Mg927       O934   2.161       .  S
Mg927      O1547   2.178   1_554  S
Mg927      O1132   2.272   1_554  S
Mg927      O1337   2.296       .  S
Mg927      O1364   2.270       .  S
O928      Mg1131   2.272       .  S
O929        C933   1.266   1_655  A
O929      Mg1335   2.296   1_545  S
O930      Mg1141   2.274       .  S
O931        C950   1.271       .  A
O931      Mg1325   2.270       .  S
O932        C952   1.270       .  A
O932      Mg1152   2.274   1_554  S
O934      Mg1152   2.179   1_554  S
O934        C945   1.232       .  S
O935      Mg1539   2.178   1_545  S
O935       Mg954   2.159       .  S
O935       C1329   1.232       .  S
O936       Mg948   2.296       .  S
Mg937      O1127   2.179   1_554  S
Mg937      O1134   2.274   1_554  S
Mg937       O953   2.268       .  S
H939       C1352   1.081       .  S
O940       Mg948   2.160       .  S
H942        C945   1.081       .  S
C944       H1347   1.081       .  S
C944       O1317   1.232       .  S
H946       C1329   1.081       .  S
Mg948      O1138   2.179       .  S
Mg948      O1136   2.274       .  S
C950       N1076   1.427       .  S
C950        O955   1.270       .  A
O951        C952   1.271       .  A
Mg954      O1128   2.274       .  S
O955      Mg1115   2.274       .  S
O956      Mg1335   2.270   1_545  S
O957       Mg959   2.159       .  S
C958        H997   1.081       .  S
C958        O971   1.232       .  S
C958        O995   1.266       .  A
Mg959      O1396   2.179       .  S
Mg959      O1003   2.274       .  S
Mg959      O1407   2.267       .  S
Mg959      O1378   2.296       .  S
O960      Mg1410   2.179       .  S
O960       Mg985   2.160       .  S
O960       C1389   1.232       .  S
O961        C992   1.266   1_655  A
O961       Mg985   2.296       .  S
C962        O964   1.271       .  A
C962        O976   1.270       .  A
O963        C991   1.266       .  A
O964       Mg996   2.268       .  S
Mg965       O971   2.161       .  S
Mg965       O967   2.272       .  S
C966       O1004   1.271       .  A
C966        O972   1.270       .  A
O967        C974   1.270       .  A
H968       C1389   1.081       .  S
C969        O984   1.266       .  A
O970        C993   1.266       .  A
O970      Mg1367   2.296   1_545  S
O971       Mg985   2.179       .  S
O972      Mg1002   2.274       .  S
C973        O986   1.271       .  A
C973        O978   1.270       .  A
C974       O1001   1.271       .  A
Mg975       O982   2.161       .  S
Mg975       O976   2.272       .  S
O977        C981   1.266   1_545  A
O978       Mg985   2.274       .  S
O979        C998   1.271       .  A
O980       C1000   1.270       .  A
O980       Mg996   2.274       .  S
C981       H1376   1.081       .  S
C981       O1368   1.232       .  S
O982       Mg996   2.179       .  S
O982        C993   1.232       .  S
O983      Mg1002   2.159       .  S
O984       Mg996   2.296       .  S
Mg985      O1001   2.268       .  S
O986      Mg1410   2.267       .  S
O988      Mg1367   2.179   1_545  S
O988       Mg996   2.160       .  S
O988       C1399   1.232       .  S
H989       C1399   1.081       .  S
H990        C993   1.081       .  S
C991       H1397   1.081       .  S
C991       O1396   1.232       .  S
O995      Mg1410   2.296       .  S
C998       O1003   1.270       .  A
O999       C1000   1.271       .  A
O999      Mg1367   2.267   1_545  S
Mg1002     O1368   2.179   1_545  S
Mg1002     O1394   2.267   1_545  S
Mg1002     O1403   2.296   1_545  S
C1005      C1006   1.185       .  T
C1006      C1007   1.377       .  S
C1007      C1008   1.185       .  T
C1009      C1010   1.225       .  T
C1010      C1011   1.443       .  S
C1011      C1012   1.225       .  T
C1013      C1014   1.225       .  T
C1014      C1015   1.443       .  S
C1015      C1016   1.225       .  T
C1017      C1018   1.185       .  T
C1018      C1019   1.377       .  S
C1019      C1020   1.185       .  T
C1021      C1023   1.506       .  S
C1021      C1025   1.506       .  S
C1021      C1024   1.506       .  S
C1021      C1221   1.435       .  S
C1022      C1026   1.559       .  S
C1022      C1028   1.558       .  S
C1022      C1027   1.558       .  S
C1022      C1217   1.500       .  S
C1023      C1031   1.367       .  A
C1024      C1035   1.367       .  A
C1025      C1039   1.367       .  A
C1026      C1029   1.387       .  A
C1027      C1033   1.386       .  A
C1028      C1036   1.386       .  A
C1029      H1042   1.082       .  S
N1030      C1031   1.345       .  A
N1030      C1122   1.427       .  S
C1031      H1032   1.083       .  S
C1033      H1043   1.082       .  S
C1033      N1034   1.368   1_556  A
C1035      H1041   1.083       .  S
C1036      H1038   1.082       .  S
N1037      C1039   1.345       .  A
N1037      C1156   1.426       .  S
C1039      H1040   1.083       .  S
C1044      C1046   1.506       .  S
C1044      C1048   1.506       .  S
C1044      C1047   1.506       .  S
C1044      C1224   1.435       .  S
C1045      C1049   1.559       .  S
C1045      C1051   1.558       .  S
C1045      C1050   1.558       .  S
C1045      C1220   1.500       .  S
C1046      C1054   1.367       .  A
C1046      C1049   1.393       .  A
C1047      C1058   1.367       .  A
C1047      C1050   1.393       .  A
C1048      C1062   1.367       .  A
C1048      C1051   1.393       .  A
C1049      C1052   1.387       .  A
C1050      C1056   1.386       .  A
C1051      C1059   1.386       .  A
C1052      H1065   1.082       .  S
C1052      N1053   1.368       .  A
N1053      C1054   1.345       .  A
N1053      C1170   1.427       .  S
C1054      H1055   1.083       .  S
C1056      H1066   1.082       .  S
C1056      N1057   1.368       .  A
N1057      C1058   1.345       .  A
N1057      C1178   1.426       .  S
C1058      H1064   1.083       .  S
C1059      H1061   1.082       .  S
C1059      N1060   1.368       .  A
N1060      C1062   1.345       .  A
N1060      C1204   1.426       .  S
C1062      H1063   1.083       .  S
C1067      C1069   1.559       .  S
C1067      C1071   1.558       .  S
C1067      C1070   1.558       .  S
C1067      C1213   1.500       .  S
C1068      C1072   1.506       .  S
C1068      C1074   1.506       .  S
C1068      C1073   1.506       .  S
C1068      C1212   1.435       .  S
C1069      C1077   1.387       .  A
C1070      C1081   1.386       .  A
C1071      C1085   1.386       .  A
C1072      C1075   1.367       .  A
C1073      C1079   1.367       .  A
C1074      C1082   1.367       .  A
C1075      H1088   1.083       .  S
N1076      C1077   1.368       .  A
C1077      H1078   1.082       .  S
C1079      H1089   1.083       .  S
C1079      N1080   1.345       .  A
N1080      C1118   1.426       .  S
C1081      H1087   1.082       .  S
C1082      H1084   1.083       .  S
C1082      N1083   1.345       .  A
N1083      C1129   1.426       .  S
C1085      H1086   1.082       .  S
C1090      C1092   1.559       .  S
C1090      C1094   1.558       .  S
C1090      C1093   1.558       .  S
C1090      C1216   1.500       .  S
C1091      C1095   1.506       .  S
C1091      C1097   1.506       .  S
C1091      C1096   1.506       .  S
C1091      C1209   1.435       .  S
C1092      C1100   1.387       .  A
C1092      C1095   1.393       .  A
C1093      C1104   1.386       .  A
C1093      C1096   1.393       .  A
C1094      C1108   1.386       .  A
C1094      C1097   1.393       .  A
C1095      C1098   1.367       .  A
C1096      C1102   1.367       .  A
C1097      C1105   1.367       .  A
C1098      H1111   1.083       .  S
C1098      N1099   1.345       .  A
N1099      C1100   1.368       .  A
N1099      C1202   1.427       .  S
C1100      H1101   1.082       .  S
C1102      H1112   1.083       .  S
C1102      N1103   1.345       .  A
N1103      C1104   1.368       .  A
N1103      C1166   1.426       .  S
C1104      H1110   1.082       .  S
C1105      H1107   1.083       .  S
C1105      N1106   1.345       .  A
N1106      C1108   1.368       .  A
N1106      C1177   1.426       .  S
C1108      H1109   1.082       .  S
O1113     Mg1115   2.159       .  S
O1113     Mg1325   2.178       .  S
O1113      C1556   1.232       .  S
C1114      H1153   1.081       .  S
C1114      O1127   1.232       .  S
C1114      O1151   1.266       .  A
O1116     Mg1141   2.160       .  S
O1117      C1148   1.266   1_545  A
O1117     Mg1141   2.296       .  S
C1118      O1120   1.271       .  A
C1118      O1132   1.270       .  A
O1119      C1147   1.266       .  A
O1119     Mg1529   2.296       .  S
O1120     Mg1152   2.268       .  S
Mg1121     O1317   2.178   1_546  S
Mg1121     O1127   2.161       .  S
Mg1121     O1527   2.296   1_545  S
Mg1121     O1543   2.270   1_545  S
C1122      O1160   1.271       .  A
C1122      O1128   1.270       .  A
O1123      C1130   1.270       .  A
C1125      H1558   1.081       .  S
C1125      O1547   1.232       .  S
C1125      O1140   1.266       .  A
O1126      C1149   1.266       .  A
C1129      O1142   1.271       .  A
C1129      O1134   1.270       .  A
C1130      O1157   1.271       .  A
Mg1131     O1138   2.161       .  S
Mg1131     O1343   2.178       .  S
Mg1131     O1541   2.296       .  S
Mg1131     O1568   2.270       .  S
O1133      C1137   1.266   1_655  A
O1133     Mg1539   2.296   1_545  S
O1135      C1154   1.271       .  A
O1135     Mg1529   2.270       .  S
O1136      C1156   1.270       .  A
O1138      C1149   1.232       .  S
O1139     Mg1335   2.178   1_546  S
O1139     Mg1158   2.159       .  S
O1139      C1533   1.232       .  S
O1140     Mg1152   2.296       .  S
Mg1141     O1157   2.268       .  S
H1143      C1556   1.081       .  S
O1144     Mg1152   2.160       .  S
H1146      C1149   1.081       .  S
C1148      H1551   1.081       .  S
C1148      O1521   1.232       .  S
H1150      C1533   1.081       .  S
C1154      O1159   1.270       .  A
O1155      C1156   1.271       .  A
O1160     Mg1539   2.270   1_545  S
O1161     Mg1163   2.159       .  S
C1162      H1201   1.081       .  S
C1162      O1175   1.232       .  S
C1162      O1199   1.266       .  A
Mg1163     O1600   2.179       .  S
Mg1163     O1207   2.274       .  S
Mg1163     O1611   2.267       .  S
Mg1163     O1582   2.296       .  S
O1164     Mg1614   2.179       .  S
O1164     Mg1189   2.160       .  S
O1164      C1593   1.232       .  S
O1165      C1196   1.266   1_655  A
O1165     Mg1189   2.296       .  S
C1166      O1168   1.271       .  A
C1166      O1180   1.270       .  A
O1167      C1195   1.266       .  A
O1168     Mg1200   2.268       .  S
Mg1169     O1175   2.161       .  S
Mg1169     O1171   2.272       .  S
C1170      O1208   1.271       .  A
C1170      O1176   1.270       .  A
O1171      C1178   1.270       .  A
H1172      C1593   1.081       .  S
C1173      O1188   1.266       .  A
O1174      C1197   1.266       .  A
O1174     Mg1571   2.296   1_545  S
O1175     Mg1189   2.179       .  S
O1176     Mg1206   2.274       .  S
C1177      O1190   1.271       .  A
C1177      O1182   1.270       .  A
C1178      O1205   1.271       .  A
Mg1179     O1186   2.161       .  S
Mg1179     O1180   2.272       .  S
O1181      C1185   1.266   1_545  A
O1182     Mg1189   2.274       .  S
O1183      C1202   1.271       .  A
O1184      C1204   1.270       .  A
O1184     Mg1200   2.274       .  S
C1185      H1580   1.081       .  S
C1185      O1572   1.232       .  S
O1186     Mg1200   2.179       .  S
O1186      C1197   1.232       .  S
O1187     Mg1206   2.159       .  S
O1188     Mg1200   2.296       .  S
Mg1189     O1205   2.268       .  S
O1190     Mg1614   2.267       .  S
O1192     Mg1571   2.179   1_545  S
O1192     Mg1200   2.160       .  S
O1192      C1603   1.232       .  S
H1193      C1603   1.081       .  S
H1194      C1197   1.081       .  S
C1195      H1601   1.081       .  S
C1195      O1600   1.232       .  S
O1199     Mg1614   2.296       .  S
C1202      O1207   1.270       .  A
O1203      C1204   1.271       .  A
O1203     Mg1571   2.267   1_545  S
Mg1206     O1572   2.179   1_545  S
Mg1206     O1598   2.267   1_545  S
Mg1206     O1607   2.296   1_545  S
C1209      C1210   1.185       .  T
C1210      C1211   1.377       .  S
C1211      C1212   1.185       .  T
C1213      C1214   1.225       .  T
C1214      C1215   1.443       .  S
C1215      C1216   1.225       .  T
C1217      C1218   1.225       .  T
C1218      C1219   1.443       .  S
C1219      C1220   1.225       .  T
C1221      C1222   1.185       .  T
C1222      C1223   1.377       .  S
C1223      C1224   1.185       .  T
C1225      C1227   1.506       .  S
C1225      C1229   1.506       .  S
C1225      C1228   1.506       .  S
C1225      C1425   1.435       .  S
C1226      C1230   1.559       .  S
C1226      C1232   1.558       .  S
C1226      C1231   1.558       .  S
C1226      C1421   1.500       .  S
C1227      C1235   1.367       .  A
C1227      C1434   1.393   1_554  A
C1228      C1239   1.367       .  A
C1228      C1435   1.393   1_554  A
C1229      C1243   1.367       .  A
C1229      C1436   1.393   1_554  A
C1230      C1431   1.393       .  A
C1230      C1233   1.387       .  A
C1231      C1432   1.393       .  A
C1231      C1237   1.386       .  A
C1232      C1433   1.393       .  A
C1232      C1240   1.386       .  A
C1233      H1246   1.082       .  S
C1233      N1438   1.368       .  A
N1234      C1437   1.368   1_554  A
N1234      C1235   1.345       .  A
N1234      C1326   1.427       .  S
C1235      H1236   1.083       .  S
C1237      H1247   1.082       .  S
C1237      N1238   1.368       .  A
N1238      C1443   1.345       .  A
N1238      C1538   1.426       .  S
C1239      H1245   1.083       .  S
C1239      N1442   1.345       .  A
C1240      H1242   1.082       .  S
C1240      N1445   1.368       .  A
N1241      C1444   1.368   1_554  A
N1241      C1243   1.345       .  A
N1241      C1360   1.426       .  S
C1243      H1244   1.083       .  S
C1248      C1250   1.506       .  S
C1248      C1252   1.506       .  S
C1248      C1251   1.506       .  S
C1248      C1428   1.435       .  S
C1249      C1253   1.559       .  S
C1249      C1255   1.558       .  S
C1249      C1254   1.558       .  S
C1249      C1424   1.500       .  S
C1250      C1258   1.367       .  A
C1250      C1253   1.393       .  A
C1251      C1262   1.367       .  A
C1251      C1254   1.393       .  A
C1252      C1266   1.367       .  A
C1252      C1255   1.393       .  A
C1253      C1256   1.387       .  A
C1254      C1260   1.386       .  A
C1255      C1263   1.386       .  A
C1256      H1269   1.082       .  S
C1256      N1257   1.368       .  A
N1257      C1258   1.345       .  A
N1257      C1374   1.427       .  S
C1258      H1259   1.083       .  S
C1260      H1270   1.082       .  S
C1260      N1261   1.368       .  A
N1261      C1262   1.345       .  A
N1261      C1382   1.426       .  S
C1262      H1268   1.083       .  S
C1263      H1265   1.082       .  S
C1263      N1264   1.368       .  A
N1264      C1266   1.345       .  A
N1264      C1408   1.426       .  S
C1266      H1267   1.083       .  S
C1271      C1273   1.559       .  S
C1271      C1275   1.558       .  S
C1271      C1274   1.558       .  S
C1271      C1417   1.500       .  S
C1272      C1276   1.506       .  S
C1272      C1278   1.506       .  S
C1272      C1277   1.506       .  S
C1272      C1416   1.435       .  S
C1273      C1281   1.387       .  A
C1273      C1480   1.393   1_554  A
C1274      C1285   1.386       .  A
C1274      C1481   1.393   1_554  A
C1275      C1289   1.386       .  A
C1275      C1482   1.393   1_554  A
C1276      C1477   1.393       .  A
C1276      C1279   1.367       .  A
C1277      C1478   1.393       .  A
C1277      C1283   1.367       .  A
C1278      C1479   1.393       .  A
C1278      C1286   1.367       .  A
C1279      H1292   1.083       .  S
C1279      N1484   1.345       .  A
N1280      C1483   1.345       .  A
N1280      C1281   1.368   1_556  A
N1280      C1562   1.427       .  S
C1281      H1282   1.082       .  S
C1283      H1293   1.083       .  S
C1283      N1284   1.345       .  A
N1284      C1489   1.368       .  A
N1284      C1322   1.426       .  S
C1285      H1291   1.082       .  S
C1285      N1488   1.368   1_554  A
C1286      H1288   1.083       .  S
C1286      N1287   1.345       .  A
N1287      C1493   1.368       .  A
N1287      C1333   1.426       .  S
C1289      H1290   1.082       .  S
C1289      N1491   1.368   1_554  A
C1294      C1296   1.559       .  S
C1294      C1298   1.558       .  S
C1294      C1297   1.558       .  S
C1294      C1420   1.500       .  S
C1295      C1299   1.506       .  S
C1295      C1301   1.506       .  S
C1295      C1300   1.506       .  S
C1295      C1413   1.435       .  S
C1296      C1304   1.387       .  A
C1296      C1299   1.393       .  A
C1297      C1308   1.386       .  A
C1297      C1300   1.393       .  A
C1298      C1312   1.386       .  A
C1298      C1301   1.393       .  A
C1299      C1302   1.367       .  A
C1300      C1306   1.367       .  A
C1301      C1309   1.367       .  A
C1302      H1315   1.083       .  S
C1302      N1303   1.345       .  A
N1303      C1304   1.368       .  A
N1303      C1406   1.427       .  S
C1304      H1305   1.082       .  S
C1306      H1316   1.083       .  S
C1306      N1307   1.345       .  A
N1307      C1308   1.368       .  A
N1307      C1370   1.426       .  S
C1308      H1314   1.082       .  S
C1309      H1311   1.083       .  S
C1309      N1310   1.345       .  A
N1310      C1312   1.368       .  A
N1310      C1381   1.426       .  S
C1312      H1313   1.082       .  S
O1317     Mg1319   2.159       .  S
C1318      H1357   1.081       .  S
C1318      O1331   1.232       .  S
C1318      O1355   1.266       .  A
Mg1319     O1567   2.274   1_554  S
O1320     Mg1345   2.160       .  S
O1321      C1352   1.266       .  A
O1321     Mg1345   2.296       .  S
C1322      O1324   1.271       .  A
C1322      O1336   1.270       .  A
O1323      C1351   1.266       .  A
O1324     Mg1356   2.268       .  S
Mg1325     O1331   2.161       .  S
Mg1325     O1531   2.272       .  S
C1326      O1364   1.271       .  A
C1326      O1332   1.270       .  A
O1327      C1334   1.270       .  A
O1327     Mg1529   2.272   1_554  S
C1329      O1344   1.266   1_545  A
O1330      C1353   1.266       .  A
O1331     Mg1549   2.179       .  S
O1332     Mg1566   2.274   1_554  S
C1333      O1346   1.271       .  A
C1333      O1338   1.270       .  A
C1334      N1442   1.426       .  S
C1334      O1361   1.271       .  A
Mg1335     O1342   2.161       .  S
Mg1335     O1540   2.272   1_554  S
O1336     Mg1539   2.272       .  S
O1337      C1341   1.266   1_655  A
O1338     Mg1549   2.274       .  S
O1339      C1358   1.271       .  A
O1340      C1360   1.270       .  A
O1340     Mg1560   2.274   1_554  S
O1342     Mg1560   2.179   1_554  S
O1342      C1353   1.232       .  S
O1343     Mg1362   2.159       .  S
O1344     Mg1356   2.296       .  S
Mg1345     O1535   2.179   1_554  S
Mg1345     O1542   2.274   1_554  S
Mg1345     O1361   2.268       .  S
O1348     Mg1356   2.160       .  S
H1350      C1353   1.081       .  S
Mg1356     O1546   2.179       .  S
Mg1356     O1544   2.274       .  S
C1358      N1484   1.427       .  S
C1358      O1363   1.270       .  A
O1359      C1360   1.271       .  A
Mg1362     O1536   2.274       .  S
O1363     Mg1523   2.274       .  S
O1365     Mg1367   2.159       .  S
C1366      H1405   1.081       .  S
C1366      O1379   1.232       .  S
C1366      O1403   1.266       .  A
Mg1367     O1411   2.274       .  S
O1368     Mg1393   2.160       .  S
O1369      C1400   1.266   1_655  A
O1369     Mg1393   2.296       .  S
C1370      O1372   1.271       .  A
C1370      O1384   1.270       .  A
O1371      C1399   1.266   1_565  A
O1372     Mg1404   2.268       .  S
Mg1373     O1379   2.161       .  S
Mg1373     O1375   2.272       .  S
C1374      O1412   1.271       .  A
C1374      O1380   1.270       .  A
O1375      C1382   1.270       .  A
C1377      O1392   1.266       .  A
O1378      C1401   1.266       .  A
O1379     Mg1393   2.179       .  S
O1380     Mg1410   2.274       .  S
C1381      O1394   1.271       .  A
C1381      O1386   1.270       .  A
C1382      O1409   1.271       .  A
Mg1383     O1390   2.161       .  S
Mg1383     O1384   2.272       .  S
O1385      C1389   1.266       .  A
O1386     Mg1393   2.274       .  S
O1387      C1406   1.271       .  A
O1388      C1408   1.270       .  A
O1388     Mg1404   2.274       .  S
O1390     Mg1404   2.179       .  S
O1390      C1401   1.232       .  S
O1391     Mg1410   2.159       .  S
O1392     Mg1404   2.296       .  S
Mg1393     O1409   2.268       .  S
O1396     Mg1404   2.160       .  S
H1398      C1401   1.081       .  S
C1406      O1411   1.270       .  A
O1407      C1408   1.271       .  A
C1413      C1414   1.185       .  T
C1414      C1415   1.377       .  S
C1415      C1416   1.185       .  T
C1417      C1418   1.225       .  T
C1418      C1419   1.443       .  S
C1419      C1420   1.225       .  T
C1421      C1422   1.225       .  T
C1422      C1423   1.443       .  S
C1423      C1424   1.225       .  T
C1425      C1426   1.185       .  T
C1426      C1427   1.377       .  S
C1427      C1428   1.185       .  T
C1429      C1431   1.506       .  S
C1429      C1433   1.506       .  S
C1429      C1432   1.506       .  S
C1429      C1629   1.435       .  S
C1430      C1434   1.559       .  S
C1430      C1436   1.558       .  S
C1430      C1435   1.558       .  S
C1430      C1625   1.500       .  S
C1431      C1439   1.367       .  A
C1432      C1443   1.367       .  A
C1433      C1447   1.367       .  A
C1434      C1437   1.387       .  A
C1435      C1441   1.386       .  A
C1436      C1444   1.386       .  A
C1437      H1450   1.082       .  S
N1438      C1439   1.345       .  A
N1438      C1530   1.427       .  S
C1439      H1440   1.083       .  S
C1441      H1451   1.082       .  S
C1441      N1442   1.368   1_556  A
C1443      H1449   1.083       .  S
C1444      H1446   1.082       .  S
N1445      C1447   1.345       .  A
N1445      C1564   1.426       .  S
C1447      H1448   1.083       .  S
C1452      C1454   1.506       .  S
C1452      C1456   1.506       .  S
C1452      C1455   1.506       .  S
C1452      C1632   1.435       .  S
C1453      C1457   1.559       .  S
C1453      C1459   1.558       .  S
C1453      C1458   1.558       .  S
C1453      C1628   1.500       .  S
C1454      C1462   1.367       .  A
C1454      C1457   1.393       .  A
C1455      C1466   1.367       .  A
C1455      C1458   1.393       .  A
C1456      C1470   1.367       .  A
C1456      C1459   1.393       .  A
C1457      C1460   1.387       .  A
C1458      C1464   1.386       .  A
C1459      C1467   1.386       .  A
C1460      H1473   1.082       .  S
C1460      N1461   1.368       .  A
N1461      C1462   1.345       .  A
N1461      C1578   1.427       .  S
C1462      H1463   1.083       .  S
C1464      H1474   1.082       .  S
C1464      N1465   1.368       .  A
N1465      C1466   1.345       .  A
N1465      C1586   1.426       .  S
C1466      H1472   1.083       .  S
C1467      H1469   1.082       .  S
C1467      N1468   1.368       .  A
N1468      C1470   1.345       .  A
N1468      C1612   1.426       .  S
C1470      H1471   1.083       .  S
C1475      C1477   1.559       .  S
C1475      C1479   1.558       .  S
C1475      C1478   1.558       .  S
C1475      C1621   1.500       .  S
C1476      C1480   1.506       .  S
C1476      C1482   1.506       .  S
C1476      C1481   1.506       .  S
C1476      C1620   1.435       .  S
C1477      C1485   1.387       .  A
C1478      C1489   1.386       .  A
C1479      C1493   1.386       .  A
C1480      C1483   1.367       .  A
C1481      C1487   1.367       .  A
C1482      C1490   1.367       .  A
C1483      H1496   1.083       .  S
N1484      C1485   1.368       .  A
C1485      H1486   1.082       .  S
C1487      H1497   1.083       .  S
C1487      N1488   1.345       .  A
N1488      C1526   1.426       .  S
C1489      H1495   1.082       .  S
C1490      H1492   1.083       .  S
C1490      N1491   1.345       .  A
N1491      C1537   1.426       .  S
C1493      H1494   1.082       .  S
C1498      C1500   1.559       .  S
C1498      C1502   1.558       .  S
C1498      C1501   1.558       .  S
C1498      C1624   1.500       .  S
C1499      C1503   1.506       .  S
C1499      C1505   1.506       .  S
C1499      C1504   1.506       .  S
C1499      C1617   1.435       .  S
C1500      C1508   1.387       .  A
C1500      C1503   1.393       .  A
C1501      C1512   1.386       .  A
C1501      C1504   1.393       .  A
C1502      C1516   1.386       .  A
C1502      C1505   1.393       .  A
C1503      C1506   1.367       .  A
C1504      C1510   1.367       .  A
C1505      C1513   1.367       .  A
C1506      H1519   1.083       .  S
C1506      N1507   1.345       .  A
N1507      C1508   1.368       .  A
N1507      C1610   1.427       .  S
C1508      H1509   1.082       .  S
C1510      H1520   1.083       .  S
C1510      N1511   1.345       .  A
N1511      C1512   1.368       .  A
N1511      C1574   1.426       .  S
C1512      H1518   1.082       .  S
C1513      H1515   1.083       .  S
C1513      N1514   1.345       .  A
N1514      C1516   1.368       .  A
N1514      C1585   1.426       .  S
C1516      H1517   1.082       .  S
O1521     Mg1523   2.159       .  S
C1522      H1561   1.081       .  S
C1522      O1535   1.232       .  S
C1522      O1559   1.266       .  A
O1524     Mg1549   2.160       .  S
O1525      C1556   1.266       .  A
O1525     Mg1549   2.296       .  S
C1526      O1528   1.271       .  A
C1526      O1540   1.270       .  A
O1527      C1555   1.266       .  A
O1528     Mg1560   2.268       .  S
Mg1529     O1535   2.161       .  S
C1530      O1568   1.271       .  A
C1530      O1536   1.270       .  A
O1531      C1538   1.270       .  A
C1533      O1548   1.266   1_545  A
O1534      C1557   1.266       .  A
C1537      O1550   1.271       .  A
C1537      O1542   1.270       .  A
C1538      O1565   1.271       .  A
Mg1539     O1546   2.161       .  S
O1541      C1545   1.266   1_655  A
O1543      C1562   1.271       .  A
O1544      C1564   1.270       .  A
O1546      C1557   1.232       .  S
O1547     Mg1566   2.159       .  S
O1548     Mg1560   2.296       .  S
Mg1549     O1565   2.268       .  S
O1552     Mg1560   2.160       .  S
H1554      C1557   1.081       .  S
C1562      O1567   1.270       .  A
O1563      C1564   1.271       .  A
O1569     Mg1571   2.158       .  S
C1570      H1609   1.081       .  S
C1570      O1583   1.232       .  S
C1570      O1607   1.266       .  A
Mg1571     O1615   2.274       .  S
O1572     Mg1597   2.160       .  S
O1573      C1604   1.266   1_655  A
O1573     Mg1597   2.296       .  S
C1574      O1576   1.271       .  A
C1574      O1588   1.270       .  A
O1575      C1603   1.266   1_565  A
O1576     Mg1608   2.268       .  S
Mg1577     O1583   2.161       .  S
Mg1577     O1579   2.272       .  S
C1578      O1616   1.271       .  A
C1578      O1584   1.270       .  A
O1579      C1586   1.270       .  A
C1581      O1596   1.266       .  A
O1582      C1605   1.266       .  A
O1583     Mg1597   2.179       .  S
O1584     Mg1614   2.274       .  S
C1585      O1598   1.271       .  A
C1585      O1590   1.270       .  A
C1586      O1613   1.271       .  A
Mg1587     O1594   2.161       .  S
Mg1587     O1588   2.272       .  S
O1589      C1593   1.266       .  A
O1590     Mg1597   2.274       .  S
O1591      C1610   1.271       .  A
O1592      C1612   1.270       .  A
O1592     Mg1608   2.274       .  S
O1594     Mg1608   2.179       .  S
O1594      C1605   1.232       .  S
O1595     Mg1614   2.159       .  S
O1596     Mg1608   2.296       .  S
Mg1597     O1613   2.268       .  S
O1600     Mg1608   2.160       .  S
H1602      C1605   1.081       .  S
C1610      O1615   1.270       .  A
O1611      C1612   1.271       .  A
C1617      C1618   1.185       .  T
C1618      C1619   1.377       .  S
C1619      C1620   1.185       .  T
C1621      C1622   1.225       .  T
C1622      C1623   1.443       .  S
C1623      C1624   1.225       .  T
C1625      C1626   1.225       .  T
C1626      C1627   1.443       .  S
C1627      C1628   1.225       .  T
C1629      C1630   1.185       .  T
C1630      C1631   1.377       .  S
C1631      C1632   1.185       .  T
