geometry optimzed in LAMMPS
_audit_creation_date              2020-11-30 
_audit_creation_method            'lammps2cif' 
_symmetry_space_group_name_H-M    'P1' 
_symmetry_Int_Tables_number       1 
_symmetry_cell_setting            triclinic 
loop_ 
_symmetry_equiv_pos_as_xyz 
  x,y,z 
_cell_length_a                    46.38977670425345 
_cell_length_b                    46.37263227591012 
_cell_length_c                    46.411741745630785 
_cell_angle_alpha                 89.79988216073275 
_cell_angle_beta                  90.06645974207557 
_cell_angle_gamma                 90.17156217877475 
loop_ 
_atom_site_label 
_atom_site_type_symbol 
_atom_site_fract_x 
_atom_site_fract_y 
_atom_site_fract_z 
_atom_site_charge 
C1          C  0.80880364  0.19676676  0.02571948     0.05580
C2          C  0.79685651  0.22435316  0.02464844    -0.10570
C3          C  0.79319602  0.23828006  0.99837131     0.03080
C4          C  0.80317574  0.22564993  0.97325740    -0.09100
C5          C  0.81494689  0.19807908  0.97369075     0.05570
C6          C  0.81777685  0.18309664  0.00006671    -0.08520
H7          H  0.78806074  0.23398485  0.04402074     0.11160
H8          H  0.79967980  0.23665046  0.95284693     0.08690
H9          H  0.82594339  0.16124380  0.00053796     0.08540
C10         C  0.66165793  0.33997194  0.97288800     0.05580
C11         C  0.65046620  0.34807248  0.99997166    -0.10570
C12         C  0.66794500  0.34471601  0.02472530     0.03080
C13         C  0.69533475  0.33258561  0.02229686    -0.09100
C14         C  0.70571177  0.32382062  0.99563833     0.05570
C15         C  0.68946753  0.32896531  0.97094972    -0.08520
H16         H  0.62863279  0.35605422  0.00182516     0.11160
H17         H  0.70781817  0.32811791  0.04158995     0.08690
H18         H  0.69766564  0.32198049  0.95021218     0.08540
C19         C  0.80562445  0.04314727  0.17661412     0.05580
C20         C  0.79064597  0.04384139  0.20254941    -0.10570
C21         C  0.78563667  0.01869506  0.21801051     0.03080
C22         C  0.79670736  0.99271298  0.20847250    -0.09100
C23         C  0.81176896  0.99135582  0.18253403     0.05570
C24         C  0.81631805  0.01668635  0.16605506    -0.08520
H25         H  0.78144606  0.06393975  0.21015662     0.11160
H26         H  0.79205984  0.97312402  0.22051774     0.08690
H27         H  0.82732445  0.01575301  0.14551667     0.08540
C28         C  0.65958334  0.99156140  0.32483775     0.05580
C29         C  0.68600909  0.99127650  0.31056830    -0.10570
C30         C  0.70067216  0.01681477  0.30540362     0.03080
C31         C  0.69001985  0.04270245  0.31556248    -0.09100
C32         C  0.66386916  0.04361316  0.33018808     0.05570
C33         C  0.64803490  0.01791247  0.33484338    -0.08520
H34         H  0.69418838  0.97137917  0.30143982     0.11160
H35         H  0.70156466  0.06252669  0.31060803     0.08690
H36         H  0.62717761  0.01847568  0.34527890     0.08540
O37         O  0.76914864  0.40531565  0.34839328    -0.71980
O38         O  0.73677967  0.32901550  0.35189886    -0.72010
O39         O  0.76793812  0.36335417  0.38808511    -0.72060
O40         O  0.73769518  0.37141848  0.31150310    -0.72110
O41         O  0.77850672  0.35353722  0.29365273    -0.72050
O42         O  0.80903457  0.34557559  0.37069019    -0.72020
O43         O  0.77770844  0.31110694  0.33430236    -0.72000
O44         O  0.81011611  0.38757657  0.33068897    -0.72060
Ni45       Ni  0.75142420  0.36788873  0.35052336     1.25410
Ni46       Ni  0.79526291  0.34877279  0.33159691     1.25360
C47         C  0.79528608  0.40876706  0.34015389     0.90200
C48         C  0.75194163  0.30754067  0.34363756     0.90130
C49         C  0.79362029  0.35406214  0.39189627     0.90160
C50         C  0.75293199  0.36341500  0.28999066     0.90330
O51         O  0.69987079  0.40604669  0.15058415    -0.71980
O52         O  0.73096022  0.32943144  0.14683016    -0.72010
O53         O  0.69942869  0.36400370  0.11116610    -0.72060
O54         O  0.73164686  0.37179079  0.18701586    -0.72110
O55         O  0.69097513  0.35429781  0.20590562    -0.72050
O56         O  0.65856387  0.34653963  0.12976347    -0.72020
O57         O  0.69021664  0.31189673  0.16557191    -0.72000
O58         O  0.65908110  0.38864907  0.16936690    -0.72060
Ni59       Ni  0.71694459  0.36843394  0.14830682     1.25410
Ni60       Ni  0.67329918  0.34970300  0.16842743     1.25360
C61         C  0.67399272  0.40972244  0.15941795     0.90200
C62         C  0.71566534  0.30809571  0.15557493     0.90130
C63         C  0.67357244  0.35476372  0.10809387     0.90160
C64         C  0.71678355  0.36387603  0.20892269     0.90330
O65         O  0.80446271  0.18630208  0.12794563    -0.71980
O66         O  0.77374165  0.17965767  0.20463627    -0.72010
O67         O  0.80401301  0.14462882  0.16791712    -0.72060
O68         O  0.77438397  0.22188012  0.16399521    -0.72110
O69         O  0.73294636  0.20509660  0.14612657    -0.72050
O70         O  0.76254826  0.12789518  0.15001546    -0.72020
O71         O  0.73234413  0.16288486  0.18668093    -0.72000
O72         O  0.76295458  0.16955090  0.11013424    -0.72060
Ni73       Ni  0.79058835  0.18376155  0.16684353     1.25410
Ni74       Ni  0.74618670  0.16579656  0.14767301     1.25360
C75         C  0.78901379  0.17797456  0.10665111     0.90200
C76         C  0.74786115  0.17054016  0.20819881     0.90130
C77         C  0.78853783  0.12383800  0.15838525     0.90160
C78         C  0.74875459  0.22613198  0.15459573     0.90330
O79         O  0.69959444  0.16996780  0.38800499    -0.71980
O80         O  0.72887200  0.16296652  0.31102927    -0.72010
O81         O  0.73098205  0.20459274  0.35191192    -0.72060
O82         O  0.69713442  0.12901079  0.34752783    -0.72110
O83         O  0.65636836  0.14783753  0.33023698    -0.72050
O84         O  0.69026898  0.22349757  0.33463864    -0.72020
O85         O  0.68822118  0.18186335  0.29361062    -0.72000
O86         O  0.65880629  0.18886173  0.37083901    -0.72060
Ni87       Ni  0.71561823  0.16598591  0.35017334     1.25410
Ni88       Ni  0.67200329  0.18624487  0.33165046     1.25360
C89         C  0.67412445  0.17969131  0.39193449     0.90200
C90         C  0.71351961  0.17149209  0.28971384     0.90130
C91         C  0.71616886  0.22645684  0.34382082     0.90160
C92         C  0.67093993  0.12619719  0.33917637     0.90330
C93         C  0.80038878  0.34237486  0.52770678     0.05580
C94         C  0.81278683  0.35002887  0.50091199    -0.10570
C95         C  0.79578640  0.34803978  0.47568985     0.03080
C96         C  0.76732821  0.33839221  0.47749431    -0.09100
C97         C  0.75587692  0.32968875  0.50373741     0.05570
C98         C  0.77198001  0.33252217  0.52882592    -0.08520
H99         H  0.83523419  0.35638317  0.49960795     0.11160
H100        H  0.75489371  0.33488317  0.45796483     0.08690
H101        H  0.76317024  0.32439809  0.54896046     0.08540
C102        C  0.65439122  0.20116202  0.47233949     0.05580
C103        C  0.66526009  0.22924501  0.47202223    -0.10570
C104        C  0.66826648  0.24455474  0.49751321     0.03080
C105        C  0.65892175  0.23266276  0.52333886    -0.09100
C106        C  0.64826646  0.20452890  0.52434877     0.05570
C107        C  0.64599587  0.18829194  0.49872065    -0.08520
H108        H  0.67394483  0.23831327  0.45223621     0.11160
H109        H  0.66261784  0.24445705  0.54319328     0.08690
H110        H  0.63884229  0.16604646  0.49940729     0.08540
O111        O  0.87047339  0.86422737  0.21857560    -0.71980
O112        O  0.79354094  0.87184707  0.24774774    -0.72010
O113        O  0.83403293  0.82988369  0.24967779    -0.72060
O114        O  0.83033536  0.90563684  0.21626447    -0.72110
O115        O  0.81291065  0.88718724  0.17540630    -0.72050
O116        O  0.81663833  0.81134548  0.20886500    -0.72020
O117        O  0.77599093  0.85331521  0.20700664    -0.72000
O118        O  0.85319994  0.84570740  0.17768392    -0.72060
Ni119      Ni  0.83266167  0.86854713  0.23453174     1.25410
Ni120      Ni  0.81400376  0.84868615  0.19080857     1.25360
C121        C  0.87436908  0.85445296  0.19314228     0.90200
C122        C  0.77217594  0.86354274  0.23235747     0.90130
C123        C  0.82576619  0.80819383  0.23474425     0.90160
C124        C  0.82192585  0.90867698  0.19012958     0.90330
O125        O  0.63248552  0.90700694  0.28102959    -0.71980
O126        O  0.62872290  0.82997728  0.25105258    -0.72010
O127        O  0.59249188  0.86537197  0.28085637    -0.72060
O128        O  0.66926478  0.87215463  0.25095117    -0.72110
O129        O  0.68693192  0.85511222  0.29236598    -0.72050
O130        O  0.60995067  0.84838959  0.32242011    -0.72020
O131        O  0.64625166  0.81297427  0.29254934    -0.72000
O132        O  0.65008946  0.88999638  0.32251121    -0.72060
Ni133      Ni  0.63017548  0.86920312  0.26446625     1.25410
Ni134      Ni  0.64900256  0.85096968  0.30891161     1.25360
C135        C  0.64083263  0.91091064  0.30703825     0.90200
C136        C  0.63707076  0.80887001  0.26684231     0.90130
C137        C  0.58877012  0.85672049  0.30679030     0.90160
C138        C  0.69066585  0.86439194  0.26657344     0.90330
O139        O  0.83116555  0.62948228  0.28750112    -0.71980
O140        O  0.83384035  0.70575196  0.25510778    -0.72010
O141        O  0.87034062  0.67207387  0.28643640    -0.72060
O142        O  0.79394699  0.66291339  0.25586683    -0.72110
O143        O  0.77567023  0.68058959  0.29655827    -0.72050
O144        O  0.85247180  0.68971056  0.32737108    -0.72020
O145        O  0.81577045  0.72348552  0.29589552    -0.72000
O146        O  0.81303657  0.64702919  0.32834456    -0.72060
Ni147      Ni  0.83289252  0.66692212  0.26977539     1.25410
Ni148      Ni  0.81348372  0.68584170  0.31347106     1.25360
C149        C  0.82277325  0.62593070  0.31356082     0.90200
C150        C  0.82527202  0.72712290  0.27021642     0.90130
C151        C  0.87391116  0.68174056  0.31200086     0.90160
C152        C  0.77225426  0.67074114  0.27095846     0.90330
O153        O  0.63252155  0.62928113  0.21740401    -0.71980
O154        O  0.62950696  0.70571078  0.24892355    -0.72010
O155        O  0.59347357  0.67179217  0.21734273    -0.72060
O156        O  0.66931774  0.66294576  0.24932444    -0.72110
O157        O  0.68832947  0.68050106  0.20874741    -0.72050
O158        O  0.61214218  0.68933478  0.17655294    -0.72020
O159        O  0.64835416  0.72330652  0.20825934    -0.72000
O160        O  0.65140457  0.64674501  0.17669916    -0.72060
Ni161      Ni  0.63061294  0.66679916  0.23470712     1.25410
Ni162      Ni  0.65084179  0.68560227  0.19115113     1.25360
C163        C  0.64133948  0.62566757  0.19152125     0.90200
C164        C  0.63834115  0.72705014  0.23369171     0.90130
C165        C  0.59040510  0.68140476  0.19163294     0.90160
C166        C  0.69129047  0.67073599  0.23449186     0.90330
C167        C  0.80621419  0.49123374  0.32802863     0.05580
C168        C  0.81907394  0.51738172  0.33735953    -0.10570
C169        C  0.80926243  0.54373038  0.32526444     0.03080
C170        C  0.78714539  0.54354477  0.30498153    -0.09100
C171        C  0.77532547  0.51775279  0.29582741     0.05570
C172        C  0.78478769  0.49179993  0.30704791    -0.08520
H173        H  0.83608881  0.51722824  0.35334722     0.11160
H174        H  0.77956790  0.56359119  0.29549069     0.08690
H175        H  0.77493093  0.47187859  0.29961997     0.08540
C176        C  0.65512699  0.54354294  0.18011711     0.05580
C177        C  0.64756927  0.51764817  0.16575940    -0.10570
C178        C  0.66145652  0.49170158  0.17404124     0.03080
C179        C  0.68211325  0.49207035  0.19578655    -0.09100
C180        C  0.68923319  0.51757734  0.20952988     0.05570
C181        C  0.67579160  0.54309584  0.20186373    -0.08520
H182        H  0.63154874  0.51769592  0.14877553     0.11160
H183        H  0.69279811  0.47224916  0.20222314     0.08690
H184        H  0.68185168  0.56291793  0.21274091     0.08540
C185        C  0.95538863  0.83359588  0.17289810     0.05580
C186        C  0.95661249  0.80519569  0.18303185    -0.10570
C187        C  0.98288127  0.79080230  0.18451100     0.03080
C188        C  0.00759807  0.80393011  0.17369797    -0.09100
C189        C  0.00719655  0.83258501  0.16467182     0.05570
C190        C  0.98092982  0.84786529  0.16414710    -0.08520
H191        H  0.93750087  0.79519709  0.19217579     0.11160
H192        H  0.02800028  0.79258080  0.17523265     0.08690
H193        H  0.98049787  0.87040717  0.15797573     0.08540
C194        C  0.00998977  0.69265946  0.31845605     0.05580
C195        C  0.98286905  0.68716684  0.33118795    -0.10570
C196        C  0.95773120  0.69036338  0.31426750     0.03080
C197        C  0.95987247  0.70024253  0.28588292    -0.09100
C198        C  0.98666894  0.70644695  0.27376752     0.05570
C199        C  0.01160155  0.70075753  0.28957493    -0.08520
H200        H  0.98132338  0.68129651  0.35374219     0.11160
H201        H  0.94035885  0.70495359  0.27387322     0.08690
H202        H  0.03250302  0.70541907  0.28012000     0.08540
C203        C  0.15778538  0.83462586  0.97224163     0.05580
C204        C  0.16607297  0.80566197  0.97279819    -0.10570
C205        C  0.16666672  0.79050180  0.99872533     0.03080
C206        C  0.15637057  0.80337166  0.02369442    -0.09100
C207        C  0.14894414  0.83245786  0.02390483     0.05570
C208        C  0.14961753  0.84851873  0.99803310    -0.08520
H209        H  0.17505905  0.79584709  0.95361240     0.11160
H210        H  0.15766522  0.79151874  0.04388662     0.08690
H211        H  0.14500184  0.87140156  0.99814116     0.08540
C212        C  0.30043286  0.69428087  0.02763119     0.04860
C213        C  0.27140133  0.70172619  0.02890848    -0.10570
C214        C  0.25560344  0.70631983  0.00374729     0.03080
C215        C  0.26784195  0.69962451  0.97722147    -0.09100
C216        C  0.29657808  0.69079955  0.97551950     0.05570
C217        C  0.31341177  0.68864067  0.00077568    -0.08520
H218        H  0.26187759  0.70721914  0.04953043     0.11160
H219        H  0.25576251  0.70364816  0.95758187     0.08690
H220        H  0.33616823  0.68364828  0.99947786     0.08540
O221        O  0.32957654  0.80816561  0.38781695    -0.71980
O222        O  0.33614077  0.77842975  0.31099715    -0.72010
O223        O  0.37028813  0.81011099  0.34704616    -0.72060
O224        O  0.29471318  0.77668175  0.35218572    -0.72110
O225        O  0.27592160  0.81738664  0.33469003    -0.72050
O226        O  0.35175931  0.85098794  0.32960304    -0.72020
O227        O  0.31746632  0.81914205  0.29340056    -0.72000
O228        O  0.31084220  0.84897238  0.37044493    -0.72060
Ni229      Ni  0.33330805  0.79187904  0.35007431     1.25410
Ni230      Ni  0.31325212  0.83553829  0.33134701     1.25360
C231        C  0.32007295  0.83375076  0.39159922     0.90200
C232        C  0.32774773  0.79379081  0.28961244     0.90130
C233        C  0.37329477  0.83623741  0.33849648     0.90160
C234        C  0.27289839  0.79152620  0.34409920     0.90330
O235        O  0.15287299  0.69827960  0.37002861    -0.71980
O236        O  0.14596546  0.73110039  0.29392381    -0.72010
O237        O  0.18804363  0.73021456  0.33465121    -0.72060
O238        O  0.11105308  0.69931473  0.32985358    -0.72110
O239        O  0.09377891  0.74005196  0.34850379    -0.72050
O240        O  0.17057318  0.77087500  0.35325529    -0.72020
O241        O  0.12858464  0.77174094  0.31263189    -0.72000
O242        O  0.13553224  0.73908294  0.38848543    -0.72060
Ni243      Ni  0.15013312  0.71330112  0.33137802     1.25410
Ni244      Ni  0.13152957  0.75688941  0.35134609     1.25360
C245        C  0.14449074  0.71315437  0.39162206     0.90200
C246        C  0.13654749  0.75690446  0.29082472     0.90130
C247        C  0.19186525  0.75573561  0.34452491     0.90160
C248        C  0.08996316  0.71432670  0.33931711     0.90330
O249        O  0.11122889  0.84870212  0.16899627    -0.71980
O250        O  0.18840013  0.81848014  0.16449741    -0.72010
O251        O  0.15264323  0.84868757  0.12833248    -0.72060
O252        O  0.14655113  0.81830168  0.20564381    -0.72110
O253        O  0.12945982  0.77683605  0.18825209    -0.72050
O254        O  0.13558954  0.80696990  0.11143853    -0.72020
O255        O  0.17118845  0.77695417  0.14734653    -0.72000
O256        O  0.09435681  0.80703386  0.15180959    -0.72060
Ni257      Ni  0.15037911  0.83499787  0.16757073     1.25410
Ni258      Ni  0.13207070  0.79047562  0.14915596     1.25360
C259        C  0.09028083  0.83299541  0.16017227     0.90200
C260        C  0.19242030  0.79277785  0.15524627     0.90130
C261        C  0.14427371  0.83288545  0.10731933     0.90160
C262        C  0.13720734  0.79250493  0.20957162     0.90330
O263        O  0.31339280  0.70269975  0.12821041    -0.71980
O264        O  0.31970259  0.73366352  0.20472539    -0.72010
O265        O  0.27795468  0.73353444  0.16377357    -0.72060
O266        O  0.35467133  0.70273305  0.16862612    -0.72110
O267        O  0.37230969  0.74381028  0.15054507    -0.72050
O268        O  0.29557776  0.77460811  0.14571602    -0.72020
O269        O  0.33733579  0.77471540  0.18663562    -0.72000
O270        O  0.33101746  0.74379958  0.11015211    -0.72060
Ni271      Ni  0.31576608  0.71672924  0.16703072     1.25410
Ni272      Ni  0.33465544  0.76072861  0.14766825     1.25360
C273        C  0.32210462  0.71787202  0.10680985     0.90200
C274        C  0.32918375  0.75941501  0.20819367     0.90130
C275        C  0.27421309  0.75921586  0.15421904     0.90160
C276        C  0.37587413  0.71786694  0.15937024     0.90330
C277        C  0.50755797  0.83787645  0.32682194     0.05580
C278        C  0.50609108  0.80973635  0.31624695    -0.10570
C279        C  0.47961285  0.79583127  0.31362571     0.03080
C280        C  0.45479225  0.80917726  0.32356544    -0.09100
C281        C  0.45558573  0.83748597  0.33344758     0.05570
C282        C  0.48211845  0.85231366  0.33514386    -0.08520
H283        H  0.52529316  0.79959518  0.30764819     0.11160
H284        H  0.43421680  0.79820425  0.32109942     0.08690
H285        H  0.48286093  0.87463570  0.34190640     0.08540
C286        C  0.45489695  0.69559793  0.18118693     0.05580
C287        C  0.48215328  0.68885010  0.16954530    -0.10570
C288        C  0.50687189  0.69202573  0.18707212     0.03080
C289        C  0.50424968  0.70308734  0.21490163    -0.09100
C290        C  0.47732514  0.71045116  0.22587980     0.05570
C291        C  0.45270843  0.70486449  0.20959393    -0.08520
H292        H  0.48414598  0.68202229  0.14734535     0.11160
H293        H  0.52353666  0.70770299  0.22732219     0.08690
H294        H  0.43170888  0.71043779  0.21821225     0.08540
O295        O  0.20838942  0.90845573  0.84956868    -0.71980
O296        O  0.23824828  0.83129638  0.85341355    -0.72010
O297        O  0.23902182  0.87366658  0.81317335    -0.72060
O298        O  0.20782847  0.86635163  0.88946172    -0.72110
O299        O  0.16660775  0.84945646  0.87113897    -0.72050
O300        O  0.19787069  0.85674330  0.79477577    -0.72020
O301        O  0.19704336  0.81442499  0.83507418    -0.72000
O302        O  0.16722691  0.89150131  0.83118739    -0.72060
Ni303      Ni  0.22485584  0.87054275  0.85202627     1.25410
Ni304      Ni  0.18073334  0.85242665  0.83235159     1.25360
C305        C  0.18260107  0.91244174  0.84054834     0.90200
C306        C  0.22263843  0.81027048  0.84455749     0.90130
C307        C  0.22376306  0.86590280  0.79151530     0.90160
C308        C  0.18192610  0.85734291  0.89269984     0.90330
O309        O  0.31427556  0.85007607  0.62917988    -0.71980
O310        O  0.28434311  0.85577633  0.70641988    -0.72010
O311        O  0.28527610  0.81371746  0.66559599    -0.72060
O312        O  0.31351514  0.89179843  0.66965589    -0.72110
O313        O  0.27136449  0.90734780  0.65241648    -0.72050
O314        O  0.24325889  0.82962433  0.64839523    -0.72020
O315        O  0.24237899  0.87154596  0.68897280    -0.72000
O316        O  0.27206911  0.86582787  0.61225305    -0.72060
Ni317      Ni  0.30084401  0.85222425  0.66840281     1.25410
Ni318      Ni  0.25578545  0.86912393  0.64993507     1.25360
C319        C  0.29804942  0.85762394  0.60813711     0.90200
C320        C  0.25841818  0.86449860  0.71029409     0.90130
C321        C  0.25966013  0.80891366  0.65635011     0.90160
C322        C  0.29714969  0.91226664  0.66100688     0.90330
O323        O  0.31551639  0.64963492  0.83135340    -0.71980
O324        O  0.28231767  0.72552055  0.83343692    -0.72010
O325        O  0.31301521  0.69189394  0.87079494    -0.72060
O326        O  0.28436253  0.68287414  0.79325193    -0.72110
O327        O  0.24332447  0.66449120  0.81045684    -0.72050
O328        O  0.27169270  0.67354464  0.88746728    -0.72020
O329        O  0.24115942  0.70709889  0.85036753    -0.72000
O330        O  0.27430526  0.63137674  0.84834609    -0.72060
Ni331      Ni  0.30023595  0.68816496  0.83147054     1.25410
Ni332      Ni  0.25614544  0.66847627  0.84966702     1.25360
C333        C  0.30064561  0.62828468  0.84070880     0.90200
C334        C  0.25644189  0.72876411  0.84247218     0.90130
C335        C  0.29707421  0.68351781  0.89174132     0.90160
C336        C  0.25899221  0.67250646  0.78918655     0.90330
O337        O  0.16769129  0.64734884  0.66619724    -0.71980
O338        O  0.20075273  0.72341614  0.66375572    -0.72010
O339        O  0.16974579  0.68990166  0.62666302    -0.72060
O340        O  0.19920248  0.68072198  0.70374752    -0.72110
O341        O  0.23998646  0.66263543  0.68602217    -0.72050
O342        O  0.21064830  0.67185034  0.60908683    -0.72020
O343        O  0.24163826  0.70540837  0.64613607    -0.72000
O344        O  0.20851062  0.62925624  0.64852172    -0.72060
Ni345      Ni  0.18290539  0.68596724  0.66577992     1.25410
Ni346      Ni  0.22665451  0.66661048  0.64687274     1.25360
C347        C  0.18236007  0.62600547  0.65684220     0.90200
C348        C  0.22660578  0.72687065  0.65469804     0.90130
C349        C  0.18528121  0.68196092  0.60533120     0.90160
C350        C  0.22472720  0.67080162  0.70746965     0.90330
C351        C  0.29733870  0.85345403  0.52434074     0.05580
C352        C  0.31338937  0.85766952  0.49886248    -0.10570
C353        C  0.29952679  0.85419726  0.47201713     0.03080
C354        C  0.27031587  0.84716307  0.47099383    -0.09100
C355        C  0.25533031  0.84000173  0.49610866     0.05570
C356        C  0.26865095  0.84430861  0.52273455    -0.08520
H357        H  0.33618456  0.86269354  0.49990048     0.11160
H358        H  0.26002025  0.84416852  0.45020616     0.08690
H359        H  0.25740584  0.83856559  0.54241752     0.08540
C360        C  0.15105891  0.71062313  0.47466183     0.05580
C361        C  0.15327847  0.69392477  0.50002386    -0.10570
C362        C  0.16245060  0.70734936  0.52577130     0.03080
C363        C  0.17055941  0.73644616  0.52549274    -0.09100
C364        C  0.16930499  0.75241123  0.49999095     0.05570
C365        C  0.15768244  0.73991574  0.47534716    -0.08520
H366        H  0.14886138  0.67098102  0.49956059     0.11160
H367        H  0.18019106  0.74595107  0.54455799     0.08690
H368        H  0.15697534  0.75245259  0.45554261     0.08540
O369        O  0.87113696  0.23001724  0.84794074    -0.71980
O370        O  0.79423699  0.25949113  0.85494975    -0.72010
O371        O  0.83043081  0.22752067  0.88872524    -0.72060
O372        O  0.83536409  0.26171894  0.81344455    -0.72110
O373        O  0.81795232  0.22114823  0.79433112    -0.72050
O374        O  0.81303759  0.18682468  0.86980293    -0.72020
O375        O  0.77669206  0.21894609  0.83590918    -0.72000
O376        O  0.85384305  0.18935252  0.82886721    -0.72060
Ni377      Ni  0.83334846  0.24615235  0.85190971     1.25410
Ni378      Ni  0.81469225  0.20265940  0.83147512     1.25360
C379        C  0.87498200  0.20456064  0.83814986     0.90200
C380        C  0.77286490  0.24417816  0.84645860     0.90130
C381        C  0.82192571  0.20134695  0.89147218     0.90160
C382        C  0.82734265  0.24703115  0.79151269     0.90330
O383        O  0.61061252  0.33333099  0.83018270    -0.71980
O384        O  0.68756561  0.30387884  0.83858652    -0.72010
O385        O  0.64760288  0.30329236  0.79598813    -0.72060
O386        O  0.65004032  0.33423640  0.87260567    -0.72110
O387        O  0.63230110  0.29286473  0.88989702    -0.72050
O388        O  0.62989255  0.26189470  0.81324647    -0.72020
O389        O  0.66980059  0.26253511  0.85587244    -0.72000
O390        O  0.59293029  0.29190763  0.84745573    -0.72060
Ni391      Ni  0.64965026  0.32014558  0.83373557     1.25410
Ni392      Ni  0.63065853  0.27581114  0.85224985     1.25360
C393        C  0.58927122  0.31757552  0.83796416     0.90200
C394        C  0.69125704  0.27814318  0.84804763     0.90130
C395        C  0.63848203  0.27750390  0.79209399     0.90160
C396        C  0.64063492  0.31894491  0.89362214     0.90330
O397        O  0.83214988  0.29665684  0.61211658    -0.71980
O398        O  0.83709853  0.26710801  0.68934321    -0.72010
O399        O  0.79659768  0.26528169  0.64727028    -0.72060
O400        O  0.87214185  0.29866229  0.65388318    -0.72110
O401        O  0.85328540  0.33957225  0.67053476    -0.72050
O402        O  0.77747727  0.30602794  0.66396882    -0.72020
O403        O  0.81809070  0.30787265  0.70613123    -0.72000
O404        O  0.81308810  0.33750051  0.62869988    -0.72060
Ni405      Ni  0.83515828  0.28047604  0.65010334     1.25410
Ni406      Ni  0.81475317  0.32417963  0.66797226     1.25360
C407        C  0.82253683  0.32215741  0.60786006     0.90200
C408        C  0.82814081  0.28247624  0.71036186     0.90130
C409        C  0.77463550  0.28011270  0.65481649     0.90160
C410        C  0.87503662  0.32475025  0.66243217     0.90330
O411        O  0.63493769  0.23141479  0.61232399    -0.71980
O412        O  0.63191803  0.26097351  0.68929930    -0.72010
O413        O  0.67224097  0.26077706  0.64713553    -0.72060
O414        O  0.59510364  0.23189867  0.65428949    -0.72110
O415        O  0.61162850  0.18983394  0.67092221    -0.72050
O416        O  0.68925757  0.21893136  0.66374208    -0.72020
O417        O  0.64871916  0.21906855  0.70602221    -0.72000
O418        O  0.65173821  0.18938437  0.62873372    -0.72060
Ni419      Ni  0.63300382  0.24773839  0.65015428     1.25410
Ni420      Ni  0.65102253  0.20281004  0.66795955     1.25360
C421        C  0.64304199  0.20541686  0.60797767     0.90200
C422        C  0.63979253  0.24482884  0.71028479     0.90130
C423        C  0.69340632  0.24477174  0.65464239     0.90160
C424        C  0.59071015  0.20618210  0.66339310     0.90330
C425        C  0.50930834  0.34103378  0.81500686     0.05580
C426        C  0.50803015  0.33362705  0.78583034    -0.10570
C427        C  0.48187574  0.33461465  0.77098156     0.03080
C428        C  0.45754984  0.34543278  0.78472807    -0.09100
C429        C  0.45800703  0.35144140  0.81412288     0.05570
C430        C  0.48403131  0.34938646  0.82964102    -0.08520
H431        H  0.52685951  0.32453992  0.77544253     0.11160
H432        H  0.43720565  0.34591754  0.77313108     0.08690
H433        H  0.48442282  0.35320772  0.85265207     0.08540
C434        C  0.45446388  0.20229257  0.67312452     0.05580
C435        C  0.48157938  0.18937823  0.66879154    -0.10570
C436        C  0.50664422  0.20647208  0.67129137     0.03080
C437        C  0.50446900  0.23528252  0.67981241    -0.09100
C438        C  0.47756948  0.24771753  0.68495466     0.05570
C439        C  0.45272039  0.23164043  0.67920703    -0.08520
H440        H  0.48318099  0.16650968  0.66441367     0.11160
H441        H  0.52400249  0.24733281  0.68436955     0.08690
H442        H  0.43170056  0.24122094  0.68266889     0.08540
C443        C  0.15888407  0.99159398  0.81878231     0.05580
C444        C  0.16727028  0.99032432  0.79001402    -0.10570
C445        C  0.17040494  0.01543931  0.77376799     0.03080
C446        C  0.16187160  0.04173007  0.78525362    -0.09100
C447        C  0.15257289  0.04344296  0.81383528     0.05570
C448        C  0.15145388  0.01833410  0.83111513    -0.08520
H449        H  0.17452036  0.96999204  0.78105456     0.11160
H450        H  0.16502777  0.06132638  0.77277077     0.08690
H451        H  0.14590911  0.01971316  0.85373189     0.08540
C452        C  0.29898319  0.04761366  0.67551630     0.05580
C453        C  0.31241836  0.02170237  0.66697949    -0.10570
C454        C  0.29609632  0.99597880  0.66667716     0.03080
C455        C  0.26724371  0.99640551  0.67500403    -0.09100
C456        C  0.25474667  0.02162809  0.68511023     0.05570
C457        C  0.27014802  0.04738538  0.68419468    -0.08520
H458        H  0.33517999  0.02137661  0.66181453     0.11160
H459        H  0.25531449  0.97629286  0.67689873     0.08690
H460        H  0.26064497  0.06667760  0.69330843     0.08540
C461        C  0.95546161  0.18453328  0.81705925     0.05580
C462        C  0.95439114  0.19131757  0.78779216    -0.10570
C463        C  0.97948543  0.19848227  0.77273293     0.03080
C464        C  0.00614048  0.19446081  0.78613124    -0.09100
C465        C  0.00778359  0.18556969  0.81488533     0.05570
C466        C  0.98232719  0.18133964  0.83094827    -0.08520
H467        H  0.93356821  0.19403940  0.77748020     0.11160
H468        H  0.02581988  0.20021176  0.77488071     0.08690
H469        H  0.98339145  0.17650291  0.85377463     0.08540
C470        C  0.95808146  0.32772016  0.66851780     0.05580
C471        C  0.95889981  0.29835689  0.67480457    -0.10570
C472        C  0.98350647  0.28588323  0.68657626     0.03080
C473        C  0.00894549  0.30196233  0.68812846    -0.09100
C474        C  0.00915265  0.33111820  0.68017592     0.05570
C475        C  0.98336231  0.34450632  0.67100775    -0.08520
H476        H  0.93916144  0.28573203  0.67380377     0.11160
H477        H  0.02800758  0.29247614  0.69780703     0.08690
H478        H  0.98280552  0.36748451  0.66677842     0.08540
O479        O  0.35390317  0.34832656  0.83078361    -0.71980
O480        O  0.27701859  0.35616409  0.80004706    -0.72010
O481        O  0.31762914  0.31378204  0.79954652    -0.72060
O482        O  0.31407151  0.39023792  0.83136489    -0.72110
O483        O  0.33190723  0.40802233  0.79031187    -0.72050
O484        O  0.33539016  0.33181784  0.75858754    -0.72020
O485        O  0.29499364  0.37410259  0.75915651    -0.72000
O486        O  0.37145571  0.36620729  0.78964053    -0.72060
Ni487      Ni  0.31489761  0.35143264  0.81685656     1.25410
Ni488      Ni  0.33398895  0.37063603  0.77294912     1.25360
C489        C  0.37516317  0.35687764  0.81536691     0.90200
C490        C  0.27341868  0.36623927  0.77450698     0.90130
C491        C  0.32723799  0.31028311  0.77390631     0.90160
C492        C  0.32355568  0.41145010  0.81635094     0.90330
O493        O  0.11261685  0.18939483  0.83187470    -0.71980
O494        O  0.18984328  0.18438515  0.80186755    -0.72010
O495        O  0.14877860  0.22615301  0.80308362    -0.72060
O496        O  0.15343310  0.14792507  0.83070575    -0.72110
O497        O  0.13623018  0.13258676  0.78848096    -0.72050
O498        O  0.13162468  0.21041769  0.76100234    -0.72020
O499        O  0.17246893  0.16880825  0.75981954    -0.72000
O500        O  0.09572318  0.17384077  0.78960586    -0.72060
Ni501      Ni  0.15183679  0.18757533  0.81838767     1.25410
Ni502      Ni  0.13341946  0.17088395  0.77324656     1.25360
C503        C  0.09159259  0.18187136  0.81562552     0.90200
C504        C  0.19374824  0.17585679  0.77591021     0.90130
C505        C  0.13953767  0.23104405  0.77749231     0.90160
C506        C  0.14506154  0.12752704  0.81413658     0.90330
O507        O  0.09308305  0.36778741  0.72720298    -0.71980
O508        O  0.17048001  0.37675902  0.75547432    -0.72010
O509        O  0.13306440  0.40987508  0.72368579    -0.72060
O510        O  0.13013196  0.33452375  0.75843923    -0.72110
O511        O  0.14713299  0.31552737  0.71775656    -0.72050
O512        O  0.15010955  0.39083432  0.68304925    -0.72020
O513        O  0.18758640  0.35770182  0.71489028    -0.72000
O514        O  0.11002859  0.34875529  0.68650451    -0.72060
Ni515      Ni  0.13113785  0.37296406  0.74264375     1.25410
Ni516      Ni  0.14937381  0.35255280  0.69911060     1.25360
C517        C  0.08892514  0.35710539  0.70215142     0.90200
C518        C  0.19168539  0.36806324  0.74016412     0.90130
C519        C  0.14123678  0.41255792  0.69742978     0.90160
C520        C  0.13829821  0.31269080  0.74374505     0.90330
O521        O  0.31288735  0.14825017  0.68419789    -0.71980
O522        O  0.31937272  0.22510419  0.71415789    -0.72010
O523        O  0.35404247  0.18906266  0.68296493    -0.72060
O524        O  0.27800619  0.18385113  0.71536032    -0.72110
O525        O  0.29654665  0.16629492  0.75618584    -0.72050
O526        O  0.37256292  0.17152020  0.72381554    -0.72020
O527        O  0.33788705  0.20757211  0.75499890    -0.72000
O528        O  0.33142621  0.13067536  0.72503504    -0.72060
Ni529      Ni  0.31540879  0.18722953  0.69773054     1.25410
Ni530      Ni  0.33526363  0.16842488  0.74148175     1.25360
C531        C  0.32174593  0.12700648  0.69946276     0.90200
C532        C  0.32918958  0.22888757  0.73968452     0.90130
C533        C  0.37560812  0.18030190  0.69780884     0.90160
C534        C  0.27486993  0.17454061  0.74119493     0.90330
C535        C  0.30904160  0.49341045  0.82976218     0.05580
C536        C  0.32099337  0.51953843  0.84017750    -0.10570
C537        C  0.30775828  0.54587498  0.83226606     0.03080
C538        C  0.28383570  0.54573666  0.81418722    -0.09100
C539        C  0.27258686  0.52003238  0.80404775     0.05570
C540        C  0.28467983  0.49397452  0.81216842    -0.08520
H541        H  0.34007238  0.51939164  0.85364035     0.11160
H542        H  0.27396848  0.56590661  0.80750444     0.08690
H543        H  0.27595908  0.47409107  0.80338879     0.08540
C544        C  0.16399167  0.54588459  0.67676639     0.05580
C545        C  0.15093670  0.51961308  0.66817761    -0.10570
C546        C  0.15585330  0.49452665  0.68498938     0.03080
C547        C  0.17368634  0.49591887  0.70910465    -0.09100
C548        C  0.18659727  0.52171652  0.71704003     0.05570
C549        C  0.18120379  0.54664268  0.70132450    -0.08520
H550        H  0.13770157  0.51865856  0.64897057     0.11160
H551        H  0.17841203  0.47644559  0.72126113     0.08690
H552        H  0.19133008  0.56674424  0.70782610     0.08540
C553        C  0.22393185  0.50653026  0.78713952    -0.10900
C554        C  0.25011897  0.52074995  0.78241913     0.11250
C555        C  0.25531387  0.53551696  0.75662432    -0.10900
C556        C  0.23435304  0.53605201  0.73545005    -0.10900
C557        C  0.20792817  0.52206876  0.74008398     0.11250
C558        C  0.20272933  0.50733285  0.76601721    -0.10900
H559        H  0.21994245  0.49507642  0.80712957     0.15240
H560        H  0.27578467  0.54616053  0.75275343     0.15240
H561        H  0.23899673  0.54686014  0.71524463     0.15240
H562        H  0.18237369  0.49648657  0.76984225     0.15240
C563        C  0.14114955  0.44083038  0.68434093    -0.10830
C564        C  0.14447399  0.46620234  0.67911888    -0.12380
C565        C  0.24645908  0.17393255  0.75384648    -0.10830
C566        C  0.22257499  0.17446480  0.76432553    -0.12380
C567        C  0.13834193  0.26025513  0.76676597    -0.10830
C568        C  0.13788727  0.28436223  0.75669625    -0.12380
C569        C  0.32441062  0.43996408  0.82848886    -0.10830
C570        C  0.32151511  0.46530898  0.83361289    -0.12380
C571        C  0.24460404  0.36830940  0.76251967    -0.10830
C572        C  0.22059257  0.36901737  0.75206551    -0.12380
C573        C  0.32882437  0.28158748  0.76195082    -0.10830
C574        C  0.32966188  0.25760185  0.75169922    -0.12380
C575        C  0.03568593  0.34669031  0.68488772    -0.10830
C576        C  0.05986629  0.35353629  0.69181084    -0.12380
C577        C  0.06241970  0.18253704  0.82603748    -0.10830
C578        C  0.03640893  0.18305284  0.82663936    -0.12380
C579        C  0.99928081  0.21593104  0.72524155    -0.10900
C580        C  0.97759959  0.21642612  0.74644909     0.11250
C581        C  0.95634637  0.23788346  0.74516416    -0.10900
C582        C  0.95754050  0.25916634  0.72432424    -0.10900
C583        C  0.98013094  0.25981338  0.70430097     0.11250
C584        C  0.00072088  0.23775509  0.70442103    -0.10900
H585        H  0.01584891  0.19954715  0.72560355     0.15240
H586        H  0.93994637  0.23980107  0.76160763     0.15240
H587        H  0.94186449  0.27641102  0.72528910     0.15240
H588        H  0.01836815  0.23803585  0.68916648     0.15240
C589        C  0.32005229  0.09833368  0.68791251    -0.10830
C590        C  0.31435322  0.07421291  0.68001474    -0.12380
C591        C  0.14754557  0.07208173  0.82452528    -0.10830
C592        C  0.14595062  0.09804787  0.82377495    -0.12380
C593        C  0.18339021  0.02920551  0.72308978    -0.10900
C594        C  0.19002601  0.01520699  0.74914216     0.11250
C595        C  0.21741850  0.00326609  0.75335271    -0.10900
C596        C  0.23788654  0.00503236  0.73189989    -0.10900
C597        C  0.23141662  0.01882836  0.70586281     0.11250
C598        C  0.20419376  0.03103427  0.70134760    -0.10900
H599        H  0.16245693  0.03897689  0.71986312     0.15240
H600        H  0.22335254  0.99342391  0.77371800     0.15240
H601        H  0.25918170  0.99629594  0.73588044     0.15240
H602        H  0.19929520  0.04211744  0.68136926     0.15240
C603        C  0.42810154  0.18629612  0.67699106    -0.10830
C604        C  0.40397436  0.18105043  0.68528979    -0.12380
C605        C  0.43013377  0.35539092  0.82706840    -0.10830
C606        C  0.40412430  0.35607119  0.82643418    -0.12380
C607        C  0.49769391  0.31732487  0.72231986    -0.10900
C608        C  0.47789276  0.31687633  0.74512466     0.11250
C609        C  0.45604528  0.29595323  0.74564044    -0.10900
C610        C  0.45493801  0.27477673  0.72482932    -0.10900
C611        C  0.47547196  0.27408114  0.70262316     0.11250
C612        C  0.49630165  0.29616799  0.70095364    -0.10900
H613        H  0.51480477  0.33324856  0.72171836     0.15240
H614        H  0.44105489  0.29451792  0.76348268     0.15240
H615        H  0.43926100  0.25768328  0.72769111     0.15240
H616        H  0.51230111  0.29628259  0.68399293     0.15240
C617        C  0.53543390  0.19561724  0.66741690    -0.10830
C618        C  0.56138058  0.19627771  0.66549412    -0.12380
C619        C  0.90362499  0.33699318  0.66295508    -0.10830
C620        C  0.92959188  0.33913085  0.66385962    -0.12380
C621        C  0.74622559  0.26718933  0.65351143    -0.10830
C622        C  0.72234286  0.25646301  0.65346429    -0.12380
C623        C  0.56050340  0.32862148  0.83531137    -0.10830
C624        C  0.53630738  0.33607402  0.82943787    -0.12380
C625        C  0.63825362  0.26572287  0.76337726    -0.10830
C626        C  0.63874241  0.25598741  0.73922838    -0.12380
C627        C  0.90378797  0.19318003  0.83702812    -0.10830
C628        C  0.92840709  0.18639518  0.83209596    -0.12380
C629        C  0.74402783  0.25586568  0.84838587    -0.10830
C630        C  0.72002357  0.26616160  0.84902827    -0.12380
C631        C  0.82857578  0.25998135  0.76313185    -0.10830
C632        C  0.82884432  0.27062918  0.73923005    -0.12380
C633        C  0.20779537  0.82244111  0.51565928    -0.10900
C634        C  0.22928615  0.82174950  0.49428062     0.11250
C635        C  0.22846289  0.79996558  0.47336345    -0.10900
C636        C  0.20764429  0.77866584  0.47449570    -0.10900
C637        C  0.18719816  0.77834294  0.49669578     0.11250
C638        C  0.18697907  0.80061499  0.51703223    -0.10900
H639        H  0.20788433  0.83903578  0.53200417     0.15240
H640        H  0.24518703  0.79790926  0.45726215     0.15240
H641        H  0.20886748  0.76121993  0.45907695     0.15240
H642        H  0.17142115  0.80053084  0.53441196     0.15240
C643        C  0.16277193  0.57277707  0.66115685    -0.10830
C644        C  0.16960603  0.59757213  0.65653994    -0.12380
C645        C  0.17441331  0.68526385  0.57646295    -0.10830
C646        C  0.16718227  0.69186175  0.55232236    -0.12380
C647        C  0.31323009  0.59995370  0.84240135    -0.10830
C648        C  0.31677240  0.57417386  0.84119476    -0.12380
C649        C  0.24743104  0.67039566  0.76021877    -0.10830
C650        C  0.23693701  0.66974017  0.73623372    -0.12380
C651        C  0.30721290  0.94166855  0.66114549    -0.10830
C652        C  0.30792568  0.96769945  0.66201041    -0.12380
C653        C  0.30844051  0.85681629  0.57896158    -0.10830
C654        C  0.30905236  0.85619095  0.55295936    -0.12380
C655        C  0.24887930  0.77968708  0.65509920    -0.10830
C656        C  0.23904384  0.75546642  0.65450120    -0.12380
C657        C  0.16284764  0.96536325  0.83495520    -0.10830
C658        C  0.17088843  0.94114741  0.84015946    -0.12380
C659        C  0.23626382  0.86670045  0.76300660    -0.10830
C660        C  0.24678301  0.86609199  0.73912396    -0.12380
C661        C  0.24431355  0.75736766  0.84382568    -0.10830
C662        C  0.23430387  0.78143946  0.84466050    -0.12380
C663        C  0.49450006  0.74714451  0.29632988    -0.10900
C664        C  0.47670207  0.77139784  0.29405996     0.11250
C665        C  0.45780085  0.77422530  0.27068915    -0.10900
C666        C  0.45720643  0.75357126  0.24935814    -0.10900
C667        C  0.47530805  0.72943173  0.25106471     0.11250
C668        C  0.49364811  0.72605494  0.27495987    -0.10900
H669        H  0.50942128  0.74495112  0.31416171     0.15240
H670        H  0.44459035  0.79329627  0.26807911     0.15240
H671        H  0.44370581  0.75745648  0.23070067     0.15240
H672        H  0.50787362  0.70765525  0.27661231     0.15240
C673        C  0.42875209  0.69801128  0.16464510    -0.10830
C674        C  0.40441662  0.70574104  0.15956326    -0.12380
C675        C  0.24545548  0.77121197  0.15356914    -0.10830
C676        C  0.22134880  0.78125983  0.15398487    -0.12380
C677        C  0.14517644  0.70115346  0.42029595    -0.10830
C678        C  0.14622999  0.69914804  0.44625264    -0.12380
C679        C  0.13555008  0.76975194  0.26232014    -0.10830
C680        C  0.13584785  0.78054317  0.23844069    -0.12380
C681        C  0.31453209  0.85224200  0.44495445    -0.10830
C682        C  0.31925259  0.84529167  0.42034664    -0.12380
C683        C  0.40178855  0.84855836  0.33885720    -0.10830
C684        C  0.42776742  0.85011645  0.33839535    -0.12380
C685        C  0.32947051  0.78203713  0.26080236    -0.10830
C686        C  0.33000470  0.77167322  0.23683692    -0.12380
C687        C  0.24444255  0.77871649  0.34520898    -0.10830
C688        C  0.22058835  0.76794558  0.34534226    -0.12380
C689        C  0.31620169  0.69782741  0.05409468    -0.10830
C690        C  0.32129729  0.70578330  0.07831819    -0.12380
C691        C  0.30712006  0.68538085  0.92096726    -0.10830
C692        C  0.30775479  0.68685584  0.94690870    -0.12380
C693        C  0.14501396  0.84464532  0.05215153    -0.10830
C694        C  0.14457054  0.84374044  0.07818710    -0.12380
C695        C  0.17011442  0.85532882  0.92126258    -0.10830
C696        C  0.16229512  0.84964789  0.94542570    -0.12380
C697        C  0.18419674  0.74113317  0.98576095    -0.10900
C698        C  0.18673485  0.76650757  0.00188804     0.11250
C699        C  0.21084653  0.77096869  0.01948270    -0.10900
C700        C  0.23238642  0.75058924  0.02085237    -0.10900
C701        C  0.23026059  0.72513855  0.00476765     0.11250
C702        C  0.20594083  0.72033706  0.98730794    -0.10900
H703        H  0.16585770  0.73779043  0.97169485     0.15240
H704        H  0.21364114  0.79095348  0.03122371     0.15240
H705        H  0.25145441  0.75548522  0.03344111     0.15240
H706        H  0.20421997  0.70100122  0.97440059     0.15240
C707        C  0.06123274  0.70240244  0.33899059    -0.10830
C708        C  0.03666680  0.69504102  0.33421544    -0.12380
C709        C  0.06128306  0.84406029  0.15965282    -0.10830
C710        C  0.03524752  0.84513007  0.15994761    -0.12380
C711        C  0.00636681  0.76874787  0.22644988    -0.10900
C712        C  0.98616351  0.76627667  0.20413585     0.11250
C713        C  0.96756579  0.74243637  0.20319016    -0.10900
C714        C  0.96885425  0.72153175  0.22488948    -0.10900
C715        C  0.98842640  0.72469090  0.24783872     0.11250
C716        C  0.00741266  0.74829774  0.24809447    -0.10900
H717        H  0.02026102  0.78749818  0.22812634     0.15240
H718        H  0.95165774  0.74047809  0.18620703     0.15240
H719        H  0.95394157  0.70353936  0.22431631     0.15240
H720        H  0.02192159  0.75209187  0.26598756     0.15240
C721        C  0.75914701  0.50523393  0.24719329    -0.10900
C722        C  0.75334170  0.51783580  0.27385650     0.11250
C723        C  0.72663160  0.53042236  0.27955097    -0.10900
C724        C  0.70548640  0.53025434  0.25845741    -0.10900
C725        C  0.71123231  0.51764455  0.23170676     0.11250
C726        C  0.73809494  0.50521229  0.22604617    -0.10900
H727        H  0.77997384  0.49570087  0.24279274     0.15240
H728        H  0.72217810  0.54002589  0.30031774     0.15240
H729        H  0.68464777  0.53968453  0.26299714     0.15240
H730        H  0.74276053  0.49576190  0.20525652     0.15240
C731        C  0.53585913  0.68613123  0.17776984    -0.10830
C732        C  0.56165650  0.68359185  0.18016475    -0.12380
C733        C  0.64039127  0.59709500  0.17933840    -0.10830
C734        C  0.64311743  0.57162069  0.17454686    -0.12380
C735        C  0.90289366  0.68378404  0.32296822    -0.10830
C736        C  0.92882409  0.68570979  0.32466641    -0.12380
C737        C  0.82383414  0.59738780  0.32596666    -0.10830
C738        C  0.82120053  0.57186797  0.33080364    -0.12380
C739        C  0.74356458  0.66919789  0.25847218    -0.10830
C740        C  0.71980402  0.66919807  0.24736737    -0.12380
C741        C  0.56005248  0.85592062  0.31825613    -0.10830
C742        C  0.53528954  0.85160762  0.32489538    -0.12380
C743        C  0.63663294  0.77998319  0.25529156    -0.10830
C744        C  0.63713216  0.75582578  0.24545228    -0.12380
C745        C  0.90326746  0.85271407  0.18211276    -0.10830
C746        C  0.92791349  0.84769508  0.17552599    -0.12380
C747        C  0.82635563  0.77971000  0.24741134    -0.10830
C748        C  0.82612823  0.75578304  0.25796127    -0.12380
C749        C  0.74337503  0.86515966  0.24415204    -0.10830
C750        C  0.71941646  0.86545001  0.25457030    -0.12380
C751        C  0.64320292  0.19334246  0.55289453    -0.10830
C752        C  0.64256380  0.19469824  0.57888667    -0.12380
C753        C  0.82155970  0.33337024  0.57890641    -0.10830
C754        C  0.81624147  0.34013955  0.55431086    -0.12380
C755        C  0.70360751  0.31756242  0.49982322    -0.10900
C756        C  0.73234001  0.30904175  0.50338873     0.11250
C757        C  0.73963762  0.27982812  0.50453159    -0.10900
C758        C  0.71838165  0.25908180  0.50215461    -0.10900
C759        C  0.68963051  0.26737065  0.49878737     0.11250
C760        C  0.68204726  0.29655822  0.49778094    -0.10900
H761        H  0.69803799  0.34019234  0.49858957     0.15240
H762        H  0.76190873  0.27316744  0.50680675     0.15240
H763        H  0.72426313  0.23648633  0.50302081     0.15240
H764        H  0.65973479  0.30291268  0.49532350     0.15240
C765        C  0.66287574  0.18090927  0.42078848    -0.10830
C766        C  0.65623615  0.18598175  0.44540708    -0.12380
C767        C  0.72527270  0.16990134  0.26087246    -0.10830
C768        C  0.73568022  0.16954922  0.23689969    -0.12380
C769        C  0.65676317  0.46372762  0.16146322    -0.10830
C770        C  0.66186936  0.43833324  0.15856130    -0.12380
C771        C  0.72742143  0.27927324  0.15438755    -0.10830
C772        C  0.73728576  0.25509495  0.15402300    -0.12380
C773        C  0.81245122  0.46286380  0.33904240    -0.10830
C774        C  0.80777178  0.43727395  0.34124637    -0.12380
C775        C  0.80642406  0.35245051  0.44685334    -0.10830
C776        C  0.80473174  0.35328090  0.42087632    -0.12380
C777        C  0.72899134  0.25492410  0.34465709    -0.10830
C778        C  0.73962017  0.27885104  0.34454984    -0.12380
C779        C  0.74066092  0.36491304  0.26122518    -0.10830
C780        C  0.72966166  0.36508819  0.23743036    -0.12380
C781        C  0.65817928  0.09786422  0.33959941    -0.10830
C782        C  0.65464860  0.07210460  0.33798991    -0.12380
C783        C  0.64041475  0.93954926  0.31878800    -0.10830
C784        C  0.64462318  0.96439976  0.32521763    -0.12380
C785        C  0.80027200  0.09516800  0.15756238    -0.10830
C786        C  0.80653647  0.07020494  0.16146251    -0.12380
C787        C  0.82221880  0.93710929  0.17764615    -0.10830
C788        C  0.82021035  0.96282190  0.17407736    -0.12380
C789        C  0.77155098  0.00738034  0.26836063    -0.10900
C790        C  0.76474260  0.01885008  0.24123144     0.11250
C791        C  0.73705029  0.02927474  0.23541848    -0.10900
C792        C  0.71630570  0.02860564  0.25671630    -0.10900
C793        C  0.72313075  0.01747334  0.28389053     0.11250
C794        C  0.75062318  0.00670096  0.28981650    -0.10900
H795        H  0.79289812  0.99906154  0.27279593     0.15240
H796        H  0.73141991  0.03747063  0.21425719     0.15240
H797        H  0.69482298  0.03647111  0.25200731     0.15240
H798        H  0.75574824  0.99792368  0.31085632     0.15240
C799        C  0.65896616  0.35120807  0.05365663    -0.10830
C800        C  0.66178473  0.35340035  0.07943138    -0.12380
C801        C  0.64027372  0.33098361  0.92218445    -0.10830
C802        C  0.64517113  0.33835688  0.94665507    -0.12380
C803        C  0.80085418  0.17849965  0.07807947    -0.10830
C804        C  0.80758914  0.18274287  0.05333438    -0.12380
C805        C  0.82114686  0.18641853  0.94572185    -0.10830
C806        C  0.82220079  0.18867961  0.91981786    -0.12380
C807        C  0.72679896  0.27836878  0.97862213    -0.10900
C808        C  0.73013606  0.30399259  0.99424328     0.11250
C809        C  0.75516526  0.30858400  0.01066924    -0.10900
C810        C  0.77646494  0.28744437  0.01170322    -0.10900
C811        C  0.77281254  0.26194198  0.99606050     0.11250
C812        C  0.74801349  0.25758505  0.97944196    -0.10900
H813        H  0.70720461  0.27381873  0.96673185     0.15240
H814        H  0.75788139  0.32814169  0.02307167     0.15240
H815        H  0.79547540  0.29072382  0.02487172     0.15240
H816        H  0.74459000  0.23754741  0.96795992     0.15240
loop_ 
_geom_bond_atom_site_label_1 
_geom_bond_atom_site_label_2 
_geom_bond_distance 
_geom_bond_site_symmetry_2 
_ccdc_geom_bond_type 
C1            C2   1.396       .  A
C1            C6   1.414       .  A
C1          C804   1.436       .  S
C2            C3   1.389   1_554  A
C2            H7   1.086       .  S
C3            C4   1.387       .  A
C3          C811   1.454       .  S
C4            C5   1.392       .  A
C4            H8   1.087       .  S
C5            C6   1.412   1_556  A
C5          C805   1.438       .  S
C6            H9   1.083       .  S
C10          C11   1.413       .  A
C10          C15   1.392       .  A
C10         C802   1.439       .  S
C11          C12   1.414   1_556  A
C11          H16   1.083   1_556  S
C12          C13   1.396       .  A
C12         C799   1.439       .  S
C13          C14   1.391   1_554  A
C13          H17   1.085       .  S
C14          C15   1.391       .  A
C14         C808   1.463       .  S
C15          H18   1.086       .  S
C19          C20   1.391       .  A
C19          C24   1.414       .  A
C19         C786   1.437       .  S
C20          C21   1.386       .  A
C20          H25   1.086       .  S
C21          C22   1.385   1_545  A
C21         C790   1.450       .  S
C22          C23   1.394       .  A
C22          H26   1.086       .  S
C23          C24   1.415   1_565  A
C23         C788   1.437       .  S
C24          H27   1.083       .  S
C28          C29   1.394       .  A
C28          C33   1.416   1_565  A
C28         C784   1.436       .  S
C29          C30   1.384   1_565  A
C29          H34   1.086       .  S
C30          C31   1.384       .  A
C30         C793   1.444       .  S
C31          C32   1.392       .  A
C31          H35   1.087       .  S
C32          C33   1.414       .  A
C32         C782   1.438       .  S
C33          H36   1.083       .  S
O37         Ni45   1.921       .  S
O37          C47   1.281       .  A
O38         Ni45   1.925       .  S
O38          C48   1.281       .  A
O39         Ni45   1.915       .  S
O39          C49   1.280       .  A
O40         Ni45   1.926       .  S
O40          C50   1.281       .  A
O41         Ni46   1.936       .  S
O41          C50   1.284       .  A
O42         Ni46   1.928       .  S
O42          C49   1.281       .  A
O43         Ni46   1.929       .  S
O43          C48   1.282       .  A
O44         Ni46   1.925       .  S
O44          C47   1.280       .  A
Ni45        Ni46   2.390       .  S
C47         C774   1.443       .  S
C48         C778   1.447       .  S
C49         C776   1.440       .  S
C50         C779   1.452       .  S
O51         Ni59   1.921       .  S
O51          C61   1.281       .  A
O52         Ni59   1.925       .  S
O52          C62   1.281       .  A
O53         Ni59   1.916       .  S
O53          C63   1.280       .  A
O54         Ni59   1.928       .  S
O54          C64   1.281       .  A
O55         Ni60   1.934       .  S
O55          C64   1.283       .  A
O56         Ni60   1.925       .  S
O56          C63   1.280       .  A
O57         Ni60   1.928       .  S
O57          C62   1.282       .  A
O58         Ni60   1.925       .  S
O58          C61   1.281       .  A
Ni59        Ni60   2.390       .  S
C61         C770   1.443       .  S
C62         C771   1.446       .  S
C63         C800   1.439       .  S
C64         C780   1.452       .  S
O65         Ni73   1.920       .  S
O65          C75   1.280       .  A
O66         Ni73   1.930       .  S
O66          C76   1.282       .  A
O67         Ni73   1.921       .  S
O67          C77   1.280       .  A
O68         Ni73   1.927       .  S
O68          C78   1.282       .  A
O69         Ni74   1.926       .  S
O69          C78   1.281       .  A
O70         Ni74   1.919       .  S
O70          C77   1.280       .  A
O71         Ni74   1.926       .  S
O71          C76   1.281       .  A
O72         Ni74   1.916       .  S
O72          C75   1.280       .  A
Ni73        Ni74   2.391       .  S
C75         C803   1.436       .  S
C76         C768   1.448       .  S
C77         C785   1.439       .  S
C78         C772   1.446       .  S
O79         Ni87   1.917       .  S
O79          C89   1.279       .  A
O80         Ni87   1.924       .  S
O80          C90   1.280       .  A
O81         Ni87   1.927       .  S
O81          C91   1.281       .  A
O82         Ni87   1.919       .  S
O82          C92   1.281       .  A
O83         Ni88   1.922       .  S
O83          C92   1.279       .  A
O84         Ni88   1.927       .  S
O84          C91   1.282       .  A
O85         Ni88   1.932       .  S
O85          C90   1.283       .  A
O86         Ni88   1.924       .  S
O86          C89   1.281       .  A
Ni87        Ni88   2.391       .  S
C89         C765   1.439       .  S
C90         C767   1.448       .  S
C91         C777   1.447       .  S
C92         C781   1.440       .  S
C93          C94   1.414       .  A
C93          C98   1.395       .  A
C93         C754   1.440       .  S
C94          C95   1.414       .  A
C94          H99   1.083       .  S
C95          C96   1.395       .  A
C95         C775   1.441       .  S
C96          C97   1.388       .  A
C96         H100   1.086       .  S
C97          C98   1.389       .  A
C97         C756   1.450       .  S
C98         H101   1.086       .  S
C102        C103   1.395       .  A
C102        C107   1.415       .  A
C102        C766   1.439       .  S
C103        C104   1.389       .  A
C103        H108   1.086       .  S
C104        C105   1.387       .  A
C104        C759   1.449       .  S
C105        C106   1.394       .  A
C105        H109   1.086       .  S
C106        C107   1.414       .  A
C106        C751   1.440       .  S
C107        H110   1.083       .  S
O111       Ni119   1.916       .  S
O111        C121   1.279       .  A
O112       Ni119   1.923       .  S
O112        C122   1.280       .  A
O113       Ni119   1.925       .  S
O113        C123   1.281       .  A
O114       Ni119   1.918       .  S
O114        C124   1.281       .  A
O115       Ni120   1.922       .  S
O115        C124   1.279       .  A
O116       Ni120   1.925       .  S
O116        C123   1.281       .  A
O117       Ni120   1.931       .  S
O117        C122   1.283       .  A
O118       Ni120   1.924       .  S
O118        C121   1.281       .  A
Ni119      Ni120   2.392       .  S
C121        C745   1.438       .  S
C122        C749   1.447       .  S
C123        C747   1.444       .  S
C124        C787   1.438       .  S
O125       Ni133   1.919       .  S
O125        C135   1.281       .  A
O126       Ni133   1.926       .  S
O126        C136   1.281       .  A
O127       Ni133   1.915       .  S
O127        C137   1.279       .  A
O128       Ni133   1.924       .  S
O128        C138   1.280       .  A
O129       Ni134   1.929       .  S
O129        C138   1.282       .  A
O130       Ni134   1.921       .  S
O130        C137   1.280       .  A
O131       Ni134   1.925       .  S
O131        C136   1.281       .  A
O132       Ni134   1.919       .  S
O132        C135   1.280       .  A
Ni133      Ni134   2.392       .  S
C135        C783   1.438       .  S
C136        C743   1.445       .  S
C137        C741   1.435       .  S
C138        C750   1.447       .  S
O139       Ni147   1.920       .  S
O139        C149   1.281       .  A
O140       Ni147   1.923       .  S
O140        C150   1.281       .  A
O141       Ni147   1.915       .  S
O141        C151   1.280       .  A
O142       Ni147   1.927       .  S
O142        C152   1.281       .  A
O143       Ni148   1.936       .  S
O143        C152   1.284       .  A
O144       Ni148   1.928       .  S
O144        C151   1.281       .  A
O145       Ni148   1.927       .  S
O145        C150   1.282       .  A
O146       Ni148   1.925       .  S
O146        C149   1.281       .  A
Ni147      Ni148   2.391       .  S
C149        C737   1.443       .  S
C150        C748   1.444       .  S
C151        C735   1.440       .  S
C152        C739   1.453       .  S
O153       Ni161   1.921       .  S
O153        C163   1.281       .  A
O154       Ni161   1.924       .  S
O154        C164   1.281       .  A
O155       Ni161   1.916       .  S
O155        C165   1.280       .  A
O156       Ni161   1.927       .  S
O156        C166   1.281       .  A
O157       Ni162   1.935       .  S
O157        C166   1.284       .  A
O158       Ni162   1.926       .  S
O158        C165   1.280       .  A
O159       Ni162   1.927       .  S
O159        C164   1.282       .  A
O160       Ni162   1.925       .  S
O160        C163   1.281       .  A
Ni161      Ni162   2.391       .  S
C163        C733   1.443       .  S
C164        C744   1.445       .  S
C165        C732   1.439       .  S
C166        C740   1.453       .  S
C167        C168   1.419       .  A
C167        C172   1.391       .  A
C167        C773   1.440       .  S
C168        C169   1.419       .  A
C168        H173   1.083       .  S
C169        C170   1.392       .  A
C169        C738   1.440       .  S
C170        C171   1.382       .  A
C170        H174   1.087       .  S
C171        C172   1.382       .  A
C171        C722   1.441       .  S
C172        H175   1.087       .  S
C176        C177   1.418       .  A
C176        C181   1.391       .  A
C176        C734   1.440       .  S
C177        C178   1.418       .  A
C177        H182   1.083       .  S
C178        C179   1.391       .  A
C178        C769   1.440       .  S
C179        C180   1.385       .  A
C179        H183   1.086       .  S
C180        C181   1.384       .  A
C180        C725   1.449       .  S
C181        H184   1.086       .  S
C185        C186   1.398       .  A
C185        C190   1.415       .  A
C185        C746   1.440       .  S
C186        C187   1.393       .  A
C186        H191   1.085       .  S
C187        C188   1.390   1_655  A
C187        C712   1.463       .  S
C188        C189   1.392       .  A
C188        H192   1.086       .  S
C189        C190   1.412   1_455  A
C189        C710   1.441       .  S
C190        H193   1.083       .  S
C194        C195   1.413   1_455  A
C194        C199   1.393       .  A
C194        C708   1.441       .  S
C195        C196   1.413       .  A
C195        H200   1.083       .  S
C196        C197   1.397       .  A
C196        C736   1.441       .  S
C197        C198   1.394       .  A
C197        H201   1.085       .  S
C198        C199   1.394   1_655  A
C198        C715   1.471       .  S
C199        H202   1.086       .  S
C203        C204   1.398       .  A
C203        C208   1.414       .  A
C203        C696   1.439       .  S
C204        C205   1.392       .  A
C204        H209   1.086       .  S
C205        C206   1.391   1_556  A
C205        C698   1.460   1_556  S
C206        C207   1.393       .  A
C206        H210   1.086       .  S
C207        C208   1.411   1_554  A
C207        C693   1.441       .  S
C208        H211   1.083       .  S
C212        C213   1.393       .  A
C212        C217   1.410       .  A
C212        C689   1.438       .  S
C213        C214   1.394       .  A
C213        H218   1.086       .  S
C214        C215   1.393   1_554  A
C214        C701   1.467       .  S
C215        C216   1.398       .  A
C215        H219   1.085       .  S
C216        C217   1.411   1_556  A
C216        C692   1.439       .  S
C217        H220   1.083   1_554  S
O221       Ni229   1.918       .  S
O221        C231   1.280       .  A
O222       Ni229   1.925       .  S
O222        C232   1.281       .  A
O223       Ni229   1.915       .  S
O223        C233   1.281       .  A
O224       Ni229   1.925       .  S
O224        C234   1.281       .  A
O225       Ni230   1.929       .  S
O225        C234   1.282       .  A
O226       Ni230   1.924       .  S
O226        C233   1.280       .  A
O227       Ni230   1.931       .  S
O227        C232   1.283       .  A
O228       Ni230   1.924       .  S
O228        C231   1.281       .  A
Ni229      Ni230   2.391       .  S
C231        C682   1.440       .  S
C232        C685   1.448       .  S
C233        C683   1.439       .  S
C234        C687   1.447       .  S
O235       Ni243   1.926       .  S
O235        C245   1.280       .  A
O236       Ni243   1.931       .  S
O236        C246   1.283       .  A
O237       Ni243   1.930       .  S
O237        C247   1.282       .  A
O238       Ni243   1.925       .  S
O238        C248   1.281       .  A
O239       Ni244   1.920       .  S
O239        C248   1.280       .  A
O240       Ni244   1.924       .  S
O240        C247   1.281       .  A
O241       Ni244   1.927       .  S
O241        C246   1.281       .  A
O242       Ni244   1.918       .  S
O242        C245   1.281       .  A
Ni243      Ni244   2.391       .  S
C245        C677   1.441       .  S
C246        C679   1.450       .  S
C247        C688   1.447       .  S
C248        C707   1.442       .  S
O249       Ni257   1.927       .  S
O249        C259   1.280       .  A
O250       Ni257   1.931       .  S
O250        C260   1.283       .  A
O251       Ni257   1.929       .  S
O251        C261   1.281       .  A
O252       Ni257   1.935       .  S
O252        C262   1.284       .  A
O253       Ni258   1.923       .  S
O253        C262   1.280       .  A
O254       Ni258   1.915       .  S
O254        C261   1.280       .  A
O255       Ni258   1.924       .  S
O255        C260   1.281       .  A
O256       Ni258   1.917       .  S
O256        C259   1.281       .  A
Ni257      Ni258   2.391       .  S
C259        C709   1.441       .  S
C260        C676   1.447       .  S
C261        C694   1.441       .  S
C262        C680   1.450       .  S
O263       Ni271   1.921       .  S
O263        C273   1.280       .  A
O264       Ni271   1.928       .  S
O264        C274   1.282       .  A
O265       Ni271   1.927       .  S
O265        C275   1.282       .  A
O266       Ni271   1.921       .  S
O266        C276   1.280       .  A
O267       Ni272   1.921       .  S
O267        C276   1.281       .  A
O268       Ni272   1.927       .  S
O268        C275   1.281       .  A
O269       Ni272   1.927       .  S
O269        C274   1.281       .  A
O270       Ni272   1.920       .  S
O270        C273   1.280       .  A
Ni271      Ni272   2.391       .  S
C273        C690   1.438       .  S
C274        C686   1.448       .  S
C275        C675   1.447       .  S
C276        C674   1.440       .  S
C277        C278   1.397       .  A
C277        C282   1.413       .  A
C277        C742   1.436       .  S
C278        C279   1.391       .  A
C278        H283   1.086       .  S
C279        C280   1.389       .  A
C279        C664   1.460       .  S
C280        C281   1.392       .  A
C280        H284   1.086       .  S
C281        C282   1.410       .  A
C281        C684   1.438       .  S
C282        H285   1.083       .  S
C286        C287   1.412       .  A
C286        C291   1.392       .  A
C286        C673   1.439       .  S
C287        C288   1.413       .  A
C287        H292   1.083       .  S
C288        C289   1.397       .  A
C288        C731   1.440       .  S
C289        C290   1.393       .  A
C289        H293   1.085       .  S
C290        C291   1.393       .  A
C290        C667   1.469       .  S
C291        H294   1.086       .  S
O295       Ni303   1.922       .  S
O295        C305   1.281       .  A
O296       Ni303   1.926       .  S
O296        C306   1.281       .  A
O297       Ni303   1.925       .  S
O297        C307   1.281       .  A
O298       Ni303   1.918       .  S
O298        C308   1.280       .  A
O299       Ni304   1.921       .  S
O299        C308   1.280       .  A
O300       Ni304   1.927       .  S
O300        C307   1.282       .  A
O301       Ni304   1.924       .  S
O301        C306   1.281       .  A
O302       Ni304   1.920       .  S
O302        C305   1.280       .  A
Ni303      Ni304   2.392       .  S
C305        C658   1.439       .  S
C306        C662   1.444       .  S
C307        C659   1.446       .  S
C308        C695   1.438       .  S
O309       Ni317   1.928       .  S
O309        C319   1.281       .  A
O310       Ni317   1.932       .  S
O310        C320   1.283       .  A
O311       Ni317   1.929       .  S
O311        C321   1.282       .  A
O312       Ni317   1.926       .  S
O312        C322   1.280       .  A
O313       Ni318   1.916       .  S
O313        C322   1.281       .  A
O314       Ni318   1.922       .  S
O314        C321   1.280       .  A
O315       Ni318   1.920       .  S
O315        C320   1.280       .  A
O316       Ni318   1.913       .  S
O316        C319   1.280       .  A
Ni317      Ni318   2.391       .  S
C319        C653   1.439       .  S
C320        C660   1.446       .  S
C321        C655   1.445       .  S
C322        C651   1.440       .  S
O323       Ni331   1.924       .  S
O323        C333   1.280       .  A
O324       Ni331   1.926       .  S
O324        C334   1.281       .  A
O325       Ni331   1.927       .  S
O325        C335   1.281       .  A
O326       Ni331   1.936       .  S
O326        C336   1.284       .  A
O327       Ni332   1.923       .  S
O327        C336   1.280       .  A
O328       Ni332   1.911       .  S
O328        C335   1.279       .  A
O329       Ni332   1.924       .  S
O329        C334   1.281       .  A
O330       Ni332   1.919       .  S
O330        C333   1.281       .  A
Ni331      Ni332   2.391       .  S
C333        C647   1.441       .  S
C334        C661   1.444       .  S
C335        C691   1.437       .  S
C336        C649   1.450       .  S
O337       Ni345   1.923       .  S
O337        C347   1.280       .  A
O338       Ni345   1.924       .  S
O338        C348   1.281       .  A
O339       Ni345   1.923       .  S
O339        C349   1.281       .  A
O340       Ni345   1.932       .  S
O340        C350   1.283       .  A
O341       Ni346   1.927       .  S
O341        C350   1.281       .  A
O342       Ni346   1.919       .  S
O342        C349   1.280       .  A
O343       Ni346   1.927       .  S
O343        C348   1.282       .  A
O344       Ni346   1.925       .  S
O344        C347   1.282       .  A
Ni345      Ni346   2.391       .  S
C347        C644   1.444       .  S
C348        C656   1.445       .  S
C349        C645   1.439       .  S
C350        C650   1.450       .  S
C351        C352   1.411       .  A
C351        C356   1.398       .  A
C351        C654   1.440       .  S
C352        C353   1.411       .  A
C352        H357   1.083       .  S
C353        C354   1.394       .  A
C353        C681   1.440       .  S
C354        C355   1.396       .  A
C354        H358   1.085       .  S
C355        C356   1.396       .  A
C355        C634   1.476       .  S
C356        H359   1.085       .  S
C360        C361   1.411       .  A
C360        C365   1.392       .  A
C360        C678   1.441       .  S
C361        C362   1.414       .  A
C361        H366   1.083       .  S
C362        C363   1.400       .  A
C362        C646   1.441       .  S
C363        C364   1.395       .  A
C363        H367   1.085       .  S
C364        C365   1.391       .  A
C364        C637   1.467       .  S
C365        H368   1.086       .  S
O369       Ni377   1.917       .  S
O369        C379   1.279       .  A
O370       Ni377   1.924       .  S
O370        C380   1.280       .  A
O371       Ni377   1.917       .  S
O371        C381   1.281       .  A
O372       Ni377   1.926       .  S
O372        C382   1.281       .  A
O373       Ni378   1.929       .  S
O373        C382   1.282       .  A
O374       Ni378   1.924       .  S
O374        C381   1.279       .  A
O375       Ni378   1.931       .  S
O375        C380   1.283       .  A
O376       Ni378   1.924       .  S
O376        C379   1.281       .  A
Ni377      Ni378   2.391       .  S
C379        C627   1.439       .  S
C380        C629   1.448       .  S
C381        C806   1.439       .  S
C382        C631   1.447       .  S
O383       Ni391   1.920       .  S
O383        C393   1.280       .  A
O384       Ni391   1.929       .  S
O384        C394   1.282       .  A
O385       Ni391   1.923       .  S
O385        C395   1.281       .  A
O386       Ni391   1.921       .  S
O386        C396   1.280       .  A
O387       Ni392   1.922       .  S
O387        C396   1.281       .  A
O388       Ni392   1.924       .  S
O388        C395   1.281       .  A
O389       Ni392   1.926       .  S
O389        C394   1.281       .  A
O390       Ni392   1.917       .  S
O390        C393   1.279       .  A
Ni391      Ni392   2.392       .  S
C393        C623   1.436       .  S
C394        C630   1.448       .  S
C395        C625   1.442       .  S
C396        C801   1.440       .  S
O397       Ni405   1.919       .  S
O397        C407   1.280       .  A
O398       Ni405   1.924       .  S
O398        C408   1.281       .  A
O399       Ni405   1.925       .  S
O399        C409   1.281       .  A
O400       Ni405   1.918       .  S
O400        C410   1.281       .  A
O401       Ni406   1.926       .  S
O401        C410   1.280       .  A
O402       Ni406   1.930       .  S
O402        C409   1.282       .  A
O403       Ni406   1.930       .  S
O403        C408   1.282       .  A
O404       Ni406   1.924       .  S
O404        C407   1.281       .  A
Ni405      Ni406   2.391       .  S
C407        C753   1.440       .  S
C408        C632   1.447       .  S
C409        C621   1.447       .  S
C410        C619   1.441       .  S
O411       Ni419   1.917       .  S
O411        C421   1.281       .  A
O412       Ni419   1.920       .  S
O412        C422   1.280       .  A
O413       Ni419   1.921       .  S
O413        C423   1.280       .  A
O414       Ni419   1.913       .  S
O414        C424   1.280       .  A
O415       Ni420   1.927       .  S
O415        C424   1.281       .  A
O416       Ni420   1.933       .  S
O416        C423   1.283       .  A
O417       Ni420   1.926       .  S
O417        C422   1.282       .  A
O418       Ni420   1.926       .  S
O418        C421   1.280       .  A
Ni419      Ni420   2.391       .  S
C421        C752   1.441       .  S
C422        C626   1.442       .  S
C423        C622   1.447       .  S
C424        C618   1.438       .  S
C425        C426   1.399       .  A
C425        C430   1.412       .  A
C425        C624   1.438       .  S
C426        C427   1.395       .  A
C426        H431   1.085       .  S
C427        C428   1.393       .  A
C427        C608   1.468       .  S
C428        C429   1.394       .  A
C428        H432   1.086       .  S
C429        C430   1.408       .  A
C429        C605   1.439       .  S
C430        H433   1.083       .  S
C434        C435   1.410       .  A
C434        C439   1.393       .  A
C434        C603   1.440       .  S
C435        C436   1.410       .  A
C435        H440   1.083       .  S
C436        C437   1.399       .  A
C436        C617   1.440       .  S
C437        C438   1.397       .  A
C437        H441   1.084       .  S
C438        C439   1.397       .  A
C438        C611   1.478       .  S
C439        H442   1.085       .  S
C443        C444   1.393       .  A
C443        C448   1.411   1_565  A
C443        C657   1.439       .  S
C444        C445   1.393   1_565  A
C444        H449   1.086       .  S
C445        C446   1.391       .  A
C445        C594   1.462       .  S
C446        C447   1.398       .  A
C446        H450   1.086       .  S
C447        C448   1.412       .  A
C447        C591   1.439       .  S
C448        H451   1.083       .  S
C452        C453   1.413       .  A
C452        C457   1.397       .  A
C452        C590   1.439       .  S
C453        C454   1.411   1_545  A
C453        H458   1.083       .  S
C454        C455   1.394       .  A
C454        C652   1.440       .  S
C455        C456   1.390   1_565  A
C455        H459   1.086       .  S
C456        C457   1.391       .  A
C456        C597   1.455       .  S
C457        H460   1.086       .  S
C461        C462   1.394       .  A
C461        C466   1.410       .  A
C461        C628   1.440       .  S
C462        C463   1.397       .  A
C462        H467   1.085       .  S
C463        C464   1.396   1_655  A
C463        C580   1.477       .  S
C464        C465   1.397       .  A
C464        H468   1.084       .  S
C465        C466   1.410   1_455  A
C465        C578   1.440       .  S
C466        H469   1.083       .  S
C470        C471   1.392       .  A
C470        C475   1.411       .  A
C470        C620   1.441       .  S
C471        C472   1.392       .  A
C471        H476   1.086       .  S
C472        C473   1.396   1_655  A
C472        C583   1.468       .  S
C473        C474   1.400       .  A
C473        H477   1.085       .  S
C474        C475   1.414   1_455  A
C474        C575   1.442       .  S
C475        H478   1.083       .  S
O479       Ni487   1.926       .  S
O479        C489   1.280       .  A
O480       Ni487   1.935       .  S
O480        C490   1.284       .  A
O481       Ni487   1.929       .  S
O481        C491   1.282       .  A
O482       Ni487   1.924       .  S
O482        C492   1.281       .  A
O483       Ni488   1.917       .  S
O483        C492   1.280       .  A
O484       Ni488   1.923       .  S
O484        C491   1.280       .  A
O485       Ni488   1.925       .  S
O485        C490   1.281       .  A
O486       Ni488   1.913       .  S
O486        C489   1.280       .  A
Ni487      Ni488   2.391       .  S
C489        C606   1.438       .  S
C490        C571   1.451       .  S
C491        C573   1.446       .  S
C492        C569   1.439       .  S
O493       Ni501   1.927       .  S
O493        C503   1.281       .  A
O494       Ni501   1.930       .  S
O494        C504   1.283       .  A
O495       Ni501   1.928       .  S
O495        C505   1.282       .  A
O496       Ni501   1.925       .  S
O496        C506   1.280       .  A
O497       Ni502   1.914       .  S
O497        C506   1.280       .  A
O498       Ni502   1.919       .  S
O498        C505   1.280       .  A
O499       Ni502   1.919       .  S
O499        C504   1.279       .  A
O500       Ni502   1.913       .  S
O500        C503   1.280       .  A
Ni501      Ni502   2.392       .  S
C503        C577   1.438       .  S
C504        C566   1.444       .  S
C505        C567   1.443       .  S
C506        C592   1.438       .  S
O507       Ni515   1.919       .  S
O507        C517   1.280       .  A
O508       Ni515   1.927       .  S
O508        C518   1.281       .  A
O509       Ni515   1.924       .  S
O509        C519   1.282       .  A
O510       Ni515   1.926       .  S
O510        C520   1.281       .  A
O511       Ni516   1.923       .  S
O511        C520   1.281       .  A
O512       Ni516   1.923       .  S
O512        C519   1.280       .  A
O513       Ni516   1.932       .  S
O513        C518   1.283       .  A
O514       Ni516   1.924       .  S
O514        C517   1.281       .  A
Ni515      Ni516   2.391       .  S
C517        C576   1.440       .  S
C518        C572   1.450       .  S
C519        C563   1.443       .  S
C520        C568   1.443       .  S
O521       Ni529   1.919       .  S
O521        C531   1.280       .  A
O522       Ni529   1.925       .  S
O522        C532   1.281       .  A
O523       Ni529   1.921       .  S
O523        C533   1.280       .  A
O524       Ni529   1.925       .  S
O524        C534   1.281       .  A
O525       Ni530   1.924       .  S
O525        C534   1.281       .  A
O526       Ni530   1.920       .  S
O526        C533   1.280       .  A
O527       Ni530   1.926       .  S
O527        C532   1.281       .  A
O528       Ni530   1.920       .  S
O528        C531   1.280       .  A
Ni529      Ni530   2.392       .  S
C531        C589   1.437       .  S
C532        C574   1.445       .  S
C533        C604   1.439       .  S
C534        C565   1.444       .  S
C535        C536   1.417       .  A
C535        C540   1.394       .  A
C535        C570   1.438       .  S
C536        C537   1.416       .  A
C536        H541   1.083       .  S
C537        C538   1.390       .  A
C537        C648   1.438       .  S
C538        C539   1.384       .  A
C538        H542   1.087       .  S
C539        C540   1.385       .  A
C539        C554   1.447       .  S
C540        H543   1.086       .  S
C544        C545   1.417       .  A
C544        C549   1.391       .  A
C544        C643   1.441       .  S
C545        C546   1.417       .  A
C545        H550   1.083       .  S
C546        C547   1.393       .  A
C546        C564   1.441       .  S
C547        C548   1.387       .  A
C547        H551   1.086       .  S
C548        C549   1.388       .  A
C548        C557   1.456       .  S
C549        H552   1.086       .  S
C553        C554   1.398       .  A
C553        C558   1.388       .  A
C553        H559   1.083       .  S
C554        C555   1.398       .  A
C555        C556   1.382       .  A
C555        H560   1.084       .  S
C556        C557   1.402       .  A
C556        H561   1.083       .  S
C557        C558   1.403       .  A
C558        H562   1.083       .  S
C563        C564   1.210       .  T
C565        C566   1.211       .  T
C567        C568   1.210       .  T
C569        C570   1.208       .  T
C571        C572   1.215       .  T
C573        C574   1.212       .  T
C575        C576   1.208       .  T
C577        C578   1.207       .  T
C579        C580   1.408       .  A
C579        C584   1.398   1_655  A
C579        H585   1.082   1_655  S
C580        C581   1.404       .  A
C581        C582   1.380       .  A
C581        H586   1.082       .  S
C582        C583   1.402       .  A
C582        H587   1.084       .  S
C583        C584   1.402   1_655  A
C584        H588   1.083       .  S
C589        C590   1.207       .  T
C591        C592   1.207       .  T
C593        C594   1.405       .  A
C593        C598   1.399       .  A
C593        H599   1.083       .  S
C594        C595   1.401       .  A
C595        C596   1.379       .  A
C595        H600   1.084   1_545  S
C596        C597   1.398       .  A
C596        H601   1.084   1_545  S
C597        C598   1.401       .  A
C598        H602   1.083       .  S
C603        C604   1.208       .  T
C605        C606   1.207       .  T
C607        C608   1.402       .  A
C607        C612   1.399       .  A
C607        H613   1.083       .  S
C608        C609   1.401       .  A
C609        C610   1.381       .  A
C609        H614   1.084       .  S
C610        C611   1.405       .  A
C610        H615   1.082       .  S
C611        C612   1.408       .  A
C612        H616   1.083       .  S
C617        C618   1.207       .  T
C619        C620   1.209       .  T
C621        C622   1.213       .  T
C623        C624   1.206       .  T
C625        C626   1.210       .  T
C627        C628   1.208       .  T
C629        C630   1.213       .  T
C631        C632   1.213       .  T
C633        C634   1.408       .  A
C633        C638   1.398       .  A
C633        H639   1.082       .  S
C634        C635   1.404       .  A
C635        C636   1.380       .  A
C635        H640   1.082       .  S
C636        C637   1.401       .  A
C636        H641   1.084       .  S
C637        C638   1.402       .  A
C638        H642   1.083       .  S
C643        C644   1.210       .  T
C645        C646   1.208       .  T
C647        C648   1.209       .  T
C649        C650   1.215       .  T
C651        C652   1.208       .  T
C653        C654   1.208       .  T
C655        C656   1.211       .  T
C657        C658   1.208       .  T
C659        C660   1.212       .  T
C661        C662   1.211       .  T
C663        C664   1.401       .  A
C663        C668   1.396       .  A
C663        H669   1.083       .  S
C664        C665   1.400       .  A
C665        C666   1.380       .  A
C665        H670   1.084       .  S
C666        C667   1.403       .  A
C666        H671   1.083       .  S
C667        C668   1.406       .  A
C668        H672   1.083       .  S
C673        C674   1.208       .  T
C675        C676   1.213       .  T
C677        C678   1.209       .  T
C679        C680   1.215       .  T
C681        C682   1.208       .  T
C683        C684   1.207       .  T
C685        C686   1.214       .  T
C687        C688   1.213       .  T
C689        C690   1.207       .  T
C691        C692   1.206       .  T
C693        C694   1.209       .  T
C695        C696   1.207       .  T
C697        C698   1.401   1_556  A
C697        C702   1.399       .  A
C697        H703   1.083       .  S
C698        C699   1.399       .  A
C699        C700   1.379       .  A
C699        H704   1.084       .  S
C700        C701   1.402       .  A
C700        H705   1.083       .  S
C701        C702   1.406   1_554  A
C702        H706   1.083       .  S
C707        C708   1.209       .  T
C709        C710   1.209       .  T
C711        C712   1.401   1_455  A
C711        C716   1.380       .  A
C711        H717   1.084       .  S
C712        C713   1.401       .  A
C713        C714   1.397       .  A
C713        H718   1.083       .  S
C714        C715   1.407       .  A
C714        H719   1.083       .  S
C715        C716   1.403   1_655  A
C716        H720   1.083       .  S
C721        C722   1.397       .  A
C721        C726   1.384       .  A
C721        H727   1.084       .  S
C722        C723   1.397       .  A
C723        C724   1.385       .  A
C723        H728   1.084       .  S
C724        C725   1.400       .  A
C724        H729   1.083       .  S
C725        C726   1.400       .  A
C726        H730   1.083       .  S
C731        C732   1.208       .  T
C733        C734   1.210       .  T
C735        C736   1.208       .  T
C737        C738   1.210       .  T
C739        C740   1.216       .  T
C741        C742   1.206       .  T
C743        C744   1.212       .  T
C745        C746   1.207       .  T
C747        C748   1.211       .  T
C749        C750   1.213       .  T
C751        C752   1.209       .  T
C753        C754   1.208       .  T
C755        C756   1.401       .  A
C755        C760   1.397       .  A
C755        H761   1.083       .  S
C756        C757   1.398       .  A
C757        C758   1.380       .  A
C757        H762   1.084       .  S
C758        C759   1.398       .  A
C758        H763   1.084       .  S
C759        C760   1.400       .  A
C760        H764   1.083       .  S
C765        C766   1.208       .  T
C767        C768   1.214       .  T
C769        C770   1.210       .  T
C771        C772   1.212       .  T
C773        C774   1.210       .  T
C775        C776   1.209       .  T
C777        C778   1.213       .  T
C779        C780   1.216       .  T
C781        C782   1.208       .  T
C783        C784   1.207       .  T
C785        C786   1.207       .  T
C787        C788   1.207       .  T
C789        C790   1.401       .  A
C789        C794   1.392       .  A
C789        H795   1.083   1_545  S
C790        C791   1.400       .  A
C791        C792   1.381       .  A
C791        H796   1.084       .  S
C792        C793   1.397       .  A
C792        H797   1.084       .  S
C793        C794   1.398       .  A
C794        H798   1.083   1_545  S
C799        C800   1.208       .  T
C801        C802   1.208       .  T
C803        C804   1.206       .  T
C805        C806   1.207       .  T
C807        C808   1.402       .  A
C807        C812   1.380       .  A
C807        H813   1.083       .  S
C808        C809   1.404   1_556  A
C809        C810   1.395       .  A
C809        H814   1.083       .  S
C810        C811   1.400   1_554  A
C810        H815   1.083       .  S
C811        C812   1.399       .  A
C812        H816   1.084       .  S
