geometry optimzed in LAMMPS
_audit_creation_date              2020-12-01 
_audit_creation_method            'lammps2cif' 
_symmetry_space_group_name_H-M    'P1' 
_symmetry_Int_Tables_number       1 
_symmetry_cell_setting            triclinic 
loop_ 
_symmetry_equiv_pos_as_xyz 
  x,y,z 
_cell_length_a                    24.20908135 
_cell_length_b                    24.269929214004335 
_cell_length_c                    25.88193085194031 
_cell_angle_alpha                 89.92309408585454 
_cell_angle_beta                  90.13444161339221 
_cell_angle_gamma                 90.16504612471168 
loop_ 
_atom_site_label 
_atom_site_type_symbol 
_atom_site_fract_x 
_atom_site_fract_y 
_atom_site_fract_z 
_atom_site_charge 
C1          C  0.25436460  0.49965013  0.33959992     0.80900
N2          N  0.25315387  0.45248441  0.31226752    -0.77400
C3          C  0.25610364  0.45241628  0.26005763     0.83400
N4          N  0.25997899  0.50110741  0.23382964    -0.77300
C5          C  0.26133883  0.54917556  0.26133799     0.83500
N6          N  0.25827133  0.54798623  0.31378234    -0.79100
C7          C  0.24134014  0.49177780  0.56384301     0.80900
N8          N  0.23558747  0.44428193  0.59048661    -0.77400
C9          C  0.24018547  0.44324579  0.64269630     0.83400
N10         N  0.24912331  0.49111823  0.66937753    -0.77300
C11         C  0.25367743  0.53943081  0.64245041     0.83500
N12         N  0.25067416  0.53892698  0.59007084    -0.79100
C13         C  0.01055857  0.72144917  0.83487950     0.80900
N14         N  0.96373997  0.72806284  0.80729406    -0.77400
C15         C  0.96497937  0.73985190  0.75617764     0.83400
N16         N  0.01459472  0.74402980  0.73129448    -0.77300
C17         C  0.06216058  0.73477053  0.75872956     0.83500
N18         N  0.05959948  0.72416239  0.81020520    -0.79100
C19         C  0.01047235  0.71505371  0.05919748     0.80900
N20         N  0.96304090  0.71877672  0.08607113    -0.77400
C21         C  0.96315236  0.72504007  0.13803283     0.83400
N22         N  0.01198661  0.72708133  0.16437758    -0.77300
C23         C  0.06018553  0.72320547  0.13735627     0.83500
N24         N  0.05891388  0.71802240  0.08503869    -0.79100
Zn25       Zn  0.20654260  0.79439038  0.67424206     1.49700
Zn26       Zn  0.23295253  0.68304794  0.74398875     1.49400
Zn27       Zn  0.29915753  0.71005488  0.64162882     1.49100
Zn28       Zn  0.32198273  0.78016791  0.74048691     1.49500
O29         O  0.26423031  0.74228735  0.70054008    -1.83400
O30         O  0.13052912  0.77234423  0.70226113    -0.74100
O31         O  0.23941108  0.60606592  0.70997319    -0.73900
O32         O  0.26928644  0.73892078  0.57528717    -0.73400
O33         O  0.15246890  0.70110927  0.75288336    -0.74100
O34         O  0.20286063  0.79793580  0.59497493    -0.73700
O35         O  0.28641556  0.62956575  0.63952855    -0.74300
O36         O  0.39753889  0.78244544  0.70600537    -0.73700
O37         O  0.26518710  0.68386476  0.81751933    -0.74400
O38         O  0.37857061  0.72953497  0.63833917    -0.73800
O39         O  0.32925875  0.74892102  0.81223227    -0.74300
O40         O  0.29729762  0.85773587  0.75070397    -0.74200
O41         O  0.22269186  0.87192635  0.70173437    -0.74000
C42         C  0.11739258  0.73556669  0.73532575     0.77800
C43         C  0.26146286  0.59371099  0.66672573     0.78300
C44         C  0.23237981  0.77300482  0.56169033     0.77300
C45         C  0.41172383  0.75975453  0.66385315     0.77600
C46         C  0.30252326  0.71357760  0.83867713     0.78800
C47         C  0.25907945  0.88884809  0.73379255     0.77800
Zn48       Zn  0.20246711  0.71477068  0.24133421     1.49700
Zn49       Zn  0.29144367  0.81200265  0.23844737     1.49400
Zn50       Zn  0.31925741  0.69519156  0.17682503     1.49100
Zn51       Zn  0.22797367  0.77711668  0.13837186     1.49500
O52         O  0.26141512  0.74893039  0.19949045    -1.83400
O53         O  0.20152905  0.74436080  0.31481751    -0.74100
O54         O  0.37325968  0.79934224  0.24533579    -0.73900
O55         O  0.30060863  0.61888922  0.20732303    -0.73400
O56         O  0.26295848  0.81183419  0.31184949    -0.74100
O57         O  0.22279211  0.63604653  0.25055994    -0.73700
O58         O  0.39489184  0.72066198  0.20547165    -0.74300
O59         O  0.26388099  0.75159970  0.07429267    -0.73700
O60         O  0.27601885  0.88814161  0.20579958    -0.74400
O61         O  0.32548577  0.68874024  0.09714381    -0.73800
O62         O  0.23110854  0.85803230  0.13659320    -0.74300
O63         O  0.15076313  0.75377201  0.13245631    -0.74200
O64         O  0.12539801  0.71730165  0.20738801    -0.74000
C65         C  0.22940279  0.78192921  0.33742199     0.77800
C66         C  0.40835154  0.76270259  0.23251948     0.78300
C67         C  0.26108130  0.60351082  0.23673249     0.77300
C68         C  0.30046614  0.71661197  0.06241941     0.77600
C69         C  0.25089519  0.89720837  0.16332978     0.78800
C70         C  0.11442666  0.73204824  0.16119791     0.77800
C71         C  0.51157900  0.77904625  0.33529116     0.80900
N72         N  0.55985214  0.77599989  0.30930486    -0.77400
C73         C  0.56065678  0.76791820  0.25738113     0.83400
N74         N  0.51198623  0.76174138  0.23083396    -0.77300
C75         C  0.46315221  0.76657917  0.25699487     0.83500
N76         N  0.46368377  0.77551287  0.30863874    -0.79100
C77         C  0.51154264  0.78248240  0.56017079     0.80900
N78         N  0.56004638  0.78211940  0.58603664    -0.77400
C79         C  0.56173592  0.77804389  0.63841485     0.83400
N80         N  0.51378816  0.77268336  0.66568777    -0.77300
C81         C  0.46481074  0.77187842  0.63941087     0.83500
N82         N  0.46431908  0.77703145  0.58726037    -0.79100
Zn83       Zn  0.73013934  0.72799474  0.63775226     1.49700
Zn84       Zn  0.79433609  0.69611371  0.73682550     1.49400
Zn85       Zn  0.82321672  0.81144612  0.67291518     1.49100
Zn86       Zn  0.70691942  0.79423898  0.73949510     1.49500
O87         O  0.76458617  0.75868547  0.69736654    -1.83400
O88         O  0.73832084  0.64761216  0.63498110    -0.74100
O89         O  0.87460738  0.71023508  0.74485957    -0.73900
O90         O  0.82771582  0.81510939  0.59275325    -0.73400
O91         O  0.78442685  0.62004710  0.70425878    -0.74100
O92         O  0.76272978  0.75421640  0.57266148    -0.73700
O93         O  0.89922001  0.78601011  0.70154547    -0.74300
O94         O  0.72956654  0.87338832  0.74773356    -0.73700
O95         O  0.76423439  0.69380810  0.80911731    -0.74400
O96         O  0.80647542  0.88901199  0.70233362    -0.73800
O97         O  0.70566272  0.76340783  0.81304986    -0.74300
O98         O  0.62909681  0.79080718  0.70614808    -0.74200
O99         O  0.65193209  0.74727205  0.63396703    -0.74000
C100        C  0.76082089  0.60980842  0.66144700     0.77800
C101        C  0.91094103  0.74511166  0.73078927     0.78300
C102        C  0.80026218  0.78767696  0.55923516     0.77300
C103        C  0.76818372  0.90535586  0.73263367     0.77600
C104        C  0.73148635  0.72396375  0.83494821     0.78800
C105        C  0.61652186  0.77137861  0.66183892     0.77800
Zn106      Zn  0.81952871  0.71896160  0.23752929     1.49700
Zn107      Zn  0.73229959  0.81728394  0.23914918     1.49400
Zn108      Zn  0.79809959  0.78664588  0.13785893     1.49100
Zn109      Zn  0.70319230  0.70457684  0.17165786     1.49500
O110        O  0.76204556  0.75643823  0.19707857    -1.83400
O111        O  0.82578723  0.74963981  0.30937283    -0.74100
O112        O  0.74357003  0.89373198  0.20436061    -0.73900
O113        O  0.87643860  0.76522940  0.13476893    -0.73400
O114        O  0.76370623  0.81624053  0.31295843    -0.74100
O115        O  0.89589077  0.71663931  0.20496456    -0.73700
O116        O  0.79022098  0.86720163  0.13487044    -0.74300
O117        O  0.69905686  0.70102717  0.09204876    -0.73700
O118        O  0.65100362  0.80150957  0.24823825    -0.74400
O119        O  0.76730601  0.75836411  0.07224697    -0.73800
O120        O  0.62775569  0.72802311  0.20096197    -0.74300
O121        O  0.71919547  0.62647283  0.19912545    -0.74200
O122        O  0.79490189  0.64154285  0.24642774    -0.74000
C123        C  0.79978787  0.78591012  0.33503092     0.77800
C124        C  0.76745352  0.90461363  0.16152011     0.78300
C125        C  0.90984790  0.73701810  0.16170846     0.77300
C126        C  0.72951044  0.72513275  0.05872206     0.77600
C127        C  0.61534415  0.76641057  0.23258883     0.78800
C128        C  0.75663560  0.60990781  0.23028515     0.77800
C129        C  0.75335310  0.50982301  0.33556272     0.80900
N130        N  0.75672875  0.55679386  0.30797276    -0.77400
C131        C  0.75263243  0.55621424  0.25579080     0.83400
N132        N  0.74693220  0.50720993  0.23016448    -0.77300
C133        C  0.74406718  0.45951411  0.25836972     0.83500
N134        N  0.74659683  0.46159260  0.31061907    -0.79100
C135        C  0.75978058  0.50761140  0.55844232     0.80900
N136        N  0.75443130  0.45972687  0.58440084    -0.77400
C137        C  0.75380447  0.45878872  0.63682098     0.83400
N138        N  0.75809898  0.50692231  0.66402093    -0.77300
C139        C  0.76226153  0.55538525  0.63735861     0.83500
N140        N  0.76326883  0.55501272  0.58510910    -0.79100
C141        C  0.76633845  0.00871906  0.83578315     0.80900
N142        N  0.76075680  0.05620376  0.80919664    -0.77400
C143        C  0.76099291  0.05671544  0.75688785     0.83400
N144        N  0.76617622  0.00830447  0.73023365    -0.77300
C145        C  0.77066624  0.95992769  0.75725072     0.83500
N146        N  0.77057575  0.96070435  0.80973158    -0.79100
C147        C  0.76419123  0.00959159  0.05936501     0.80900
N148        N  0.76828521  0.96137408  0.08509740    -0.77400
C149        C  0.76571020  0.95958741  0.13753768     0.83400
N150        N  0.76032585  0.00737484  0.16493254    -0.77300
C151        C  0.75696025  0.05620765  0.13872494     0.83500
N152        N  0.75801169  0.05666938  0.08635181    -0.79100
Zn153      Zn  0.68675890  0.21828865  0.74055183     1.49700
Zn154      Zn  0.80283476  0.20830782  0.67420526     1.49400
Zn155      Zn  0.70774222  0.28782019  0.63966237     1.49100
Zn156      Zn  0.77105047  0.31964828  0.74153537     1.49500
O157        O  0.74263609  0.25763823  0.69955709    -1.83400
O158        O  0.71243396  0.13947823  0.74736039    -0.74100
O159        O  0.80624841  0.20254890  0.59481724    -0.73900
O160        O  0.62724305  0.27397471  0.64085426    -0.73400
O161        O  0.79063190  0.13034857  0.70261950    -0.74100
O162        O  0.60839382  0.22095913  0.70869442    -0.73700
O163        O  0.73394565  0.25369741  0.57376184    -0.74300
O164        O  0.76491407  0.39473502  0.70642268    -0.73700
O165        O  0.87711625  0.23524306  0.70307612    -0.74400
O166        O  0.72427191  0.36749412  0.63376430    -0.73800
O167        O  0.85096917  0.30533154  0.75304216    -0.74300
O168        O  0.73951896  0.32166258  0.81413917    -0.74200
O169        O  0.68595261  0.24711124  0.81415243    -0.74000
C170        C  0.75331329  0.11067352  0.73215362     0.77800
C171        C  0.77335424  0.22214884  0.56091569     0.78300
C172        C  0.59342053  0.24566418  0.66744911     0.77300
C173        C  0.74662246  0.40478447  0.66126458     0.77600
C174        C  0.88776321  0.27258612  0.73640910     0.78800
C175        C  0.70911284  0.28706331  0.83785603     0.77800
Zn176      Zn  0.68849971  0.21837361  0.15918001     1.49700
Zn177      Zn  0.80463329  0.20342430  0.22555581     1.49400
Zn178      Zn  0.77587920  0.31719288  0.15966886     1.49100
Zn179      Zn  0.71102250  0.28535569  0.26073236     1.49500
O180        O  0.74589248  0.25542240  0.20081190    -1.83400
O181        O  0.71225727  0.14040311  0.14924331    -0.74100
O182        O  0.88063216  0.22874252  0.19811847    -0.73900
O183        O  0.74651019  0.31774051  0.08600112    -0.73400
O184        O  0.78929190  0.12681911  0.19501845    -0.74100
O185        O  0.68548188  0.24911912  0.08656294    -0.73700
O186        O  0.85705752  0.30283312  0.15186694    -0.74300
O187        O  0.71975258  0.36669647  0.26349363    -0.73700
O188        O  0.80702233  0.19570450  0.30515305    -0.74400
O189        O  0.76397441  0.39317419  0.19249785    -0.73800
O190        O  0.74083317  0.25438360  0.32637185    -0.74300
O191        O  0.63242975  0.26435009  0.26310670    -0.74200
O192        O  0.61161991  0.21727980  0.19222281    -0.74000
C193        C  0.75164118  0.10967224  0.16431282     0.77800
C194        C  0.89292874  0.26807169  0.16728023     0.78300
C195        C  0.71214565  0.28663106  0.06269355     0.77300
C196        C  0.74123258  0.40420870  0.23559045     0.77600
C197        C  0.77713215  0.21925102  0.33912915     0.78800
C198        C  0.59831170  0.23707893  0.23596114     0.77800
C199        C  0.49693621  0.21693595  0.33886946     0.80900
N200        N  0.54457619  0.22023231  0.31207107    -0.77400
C201        C  0.54471478  0.22585578  0.25991072     0.83400
N202        N  0.49594506  0.22781663  0.23343899    -0.77300
C203        C  0.44764804  0.22454831  0.26042041     0.83500
N204        N  0.44872352  0.21990020  0.31275414    -0.79100
C205        C  0.49319336  0.22246131  0.56390226     0.80900
N206        N  0.54005111  0.22824736  0.59155723    -0.77400
C207        C  0.53926666  0.23616881  0.64329898     0.83400
N208        N  0.48986323  0.23837962  0.66871855    -0.77300
C209        C  0.44202933  0.23161711  0.64097417     0.83500
N210        N  0.44425183  0.22392961  0.58898092    -0.79100
C211        C  0.24713288  0.99132088  0.83674454     0.80900
N212        N  0.25384974  0.94361629  0.81077140    -0.77400
C213        C  0.25359850  0.94281102  0.75831065     0.83400
N214        N  0.24812891  0.99085300  0.73101446    -0.77300
C215        C  0.24207334  0.03909003  0.75753013     0.83500
N216        N  0.24089581  0.03843106  0.80986378    -0.79100
C217        C  0.24223381  0.00030275  0.06061927     0.80900
N218        N  0.24563637  0.95278423  0.08726442    -0.77400
C219        C  0.24760606  0.95207812  0.13952763     0.83400
N220        N  0.24627984  0.00058293  0.16635718    -0.77300
C221        C  0.24243189  0.04902271  0.13935648     0.83500
N222        N  0.24089523  0.04836178  0.08689237    -0.79100
C223        C  0.99015200  0.28083314  0.84062496     0.80900
N224        N  0.03770648  0.27035076  0.81542253    -0.77400
C225        C  0.03826750  0.26349757  0.76343388     0.83400
N226        N  0.98997969  0.26507461  0.73622359    -0.77300
C227        C  0.94179004  0.27500037  0.76183236     0.83500
N228        N  0.94231951  0.28321045  0.81376650    -0.79100
C229        C  0.99476104  0.28236506  0.06352635     0.80900
N230        N  0.04333911  0.27641428  0.08864691    -0.77400
C231        C  0.04479381  0.26737661  0.14039295     0.83400
N232        N  0.99641547  0.26323016  0.16751841    -0.77300
C233        C  0.94730918  0.27067754  0.14206566     0.83500
N234        N  0.94712822  0.28000986  0.09036218    -0.79100
Zn235      Zn  0.29753887  0.29558876  0.72368780     1.49700
Zn236      Zn  0.17965211  0.27700889  0.66043996     1.49400
Zn237      Zn  0.27059972  0.18221577  0.65673638     1.49100
Zn238      Zn  0.20709767  0.21104974  0.76043222     1.49500
O239        O  0.23976420  0.24207277  0.69972353    -1.83400
O240        O  0.27796095  0.37253907  0.69593850    -0.74100
O241        O  0.17484168  0.24779315  0.58742289    -0.73900
O242        O  0.35184175  0.19767123  0.64903713    -0.73400
O243        O  0.19988304  0.35644653  0.65228524    -0.74100
O244        O  0.37321983  0.27301393  0.69440491    -0.73700
O245        O  0.24066440  0.18497247  0.58264209    -0.74300
O246        O  0.21733941  0.13102733  0.76125644    -0.73700
O247        O  0.10378508  0.27322669  0.69501040    -0.74400
O248        O  0.26011098  0.10486112  0.68951554    -0.73800
O249        O  0.12780892  0.22889538  0.76651044    -0.74300
O250        O  0.23979870  0.23965255  0.82557395    -0.74200
O251        O  0.30373644  0.30059341  0.80301817    -0.74000
C252        C  0.23832415  0.38875218  0.66704752     0.77800
C253        C  0.20327927  0.21398813  0.56097072     0.78300
C254        C  0.38676556  0.23354839  0.66438468     0.77300
C255        C  0.23860661  0.09377500  0.73334106     0.77600
C256        C  0.09200850  0.25367714  0.73930149     0.78800
C257        C  0.27628824  0.27498903  0.83757342     0.77800
Zn258      Zn  0.28042180  0.27875064  0.25983438     1.49700
Zn259      Zn  0.18797152  0.19693890  0.22232641     1.49400
Zn260      Zn  0.21703810  0.31280887  0.15960860     1.49100
Zn261      Zn  0.30470388  0.21450181  0.15725980     1.49500
O262        O  0.24648795  0.24988025  0.19901289    -1.83400
O263        O  0.24511966  0.25383974  0.32463255    -0.74100
O264        O  0.11265986  0.22222156  0.19291269    -0.73900
O265        O  0.23058361  0.38861389  0.19309853    -0.73400
O266        O  0.18191018  0.19208806  0.30212381    -0.74100
O267        O  0.27671482  0.35942245  0.26193262    -0.73700
O268        O  0.13542415  0.29947159  0.15086254    -0.74300
O269        O  0.30610263  0.24436033  0.08354510    -0.73700
O270        O  0.20558781  0.11981689  0.19322388    -0.74400
O271        O  0.24743358  0.31394528  0.08707248    -0.73800
O272        O  0.28334174  0.13537784  0.14918361    -0.74300
O273        O  0.38192876  0.21719309  0.19092068    -0.74200
O274        O  0.35762543  0.25594999  0.26503254    -0.74000
C275        C  0.20780994  0.21948681  0.33667690     0.77800
C276        C  0.09985768  0.26336450  0.16440658     0.78300
C277        C  0.25557221  0.39804904  0.23554887     0.77300
C278        C  0.27996052  0.28336494  0.06133902     0.77600
C279        C  0.24465297  0.10341716  0.16389137     0.78800
C280        C  0.39346596  0.23327597  0.23657570     0.77800
C281        C  0.19528561  0.21346241  0.39271978    -0.04600
C282        C  0.20859529  0.16467411  0.41961301    -0.01800
C283        C  0.20792830  0.16349455  0.47442381     0.03200
C284        C  0.19543056  0.21179507  0.50312200    -0.04600
C285        C  0.17990618  0.26011731  0.47543784    -0.01800
C286        C  0.17927486  0.26049911  0.42087651     0.03200
C287        C  0.22673355  0.11676295  0.39089616     0.37900
C288        C  0.16823623  0.31130752  0.50225901     0.37900
C289        C  0.16399110  0.31048240  0.39336534     0.36300
C290        C  0.22074843  0.11240987  0.50091501     0.36300
N291        N  0.15190716  0.35030983  0.37149343    -0.38500
N292        N  0.23096963  0.07149237  0.52182480    -0.38500
N293        N  0.15902178  0.35236083  0.52321516    -0.38000
N294        N  0.24158549  0.07876271  0.36786655    -0.38000
C295        C  0.28300938  0.28766570  0.89343848    -0.04600
C296        C  0.33070622  0.27184159  0.92099348    -0.01800
C297        C  0.33140023  0.27379453  0.97576743     0.03200
C298        C  0.28374723  0.29059726  0.00360448    -0.04600
C299        C  0.23715152  0.30965606  0.97512830    -0.01800
C300        C  0.23720354  0.30848462  0.92064457     0.03200
C301        C  0.37794721  0.25062856  0.89309114     0.37900
C302        C  0.18703979  0.32721337  0.00105912     0.37900
C303        C  0.18881069  0.32711310  0.89224160     0.36300
C304        C  0.38126918  0.25804638  0.00314603     0.36300
N305        N  0.15025809  0.34185116  0.86965232    -0.38500
N306        N  0.42115041  0.24549014  0.02486833    -0.38500
N307        N  0.14685279  0.34119750  0.02127172    -0.38000
N308        N  0.41559686  0.23353097  0.87085324    -0.38000
C309        C  0.98984938  0.28198287  0.89764150    -0.04600
C310        C  0.00230409  0.23332652  0.92513728    -0.01800
C311        C  0.00443876  0.23394974  0.97941859     0.03200
C312        C  0.99330329  0.28303213  0.00655269    -0.04600
C313        C  0.97909349  0.33133119  0.97925437    -0.01800
C314        C  0.97780626  0.33093976  0.92470450     0.03200
C315        C  0.01105817  0.18205781  0.89752943     0.37900
C316        C  0.96640276  0.38138119  0.00730932     0.37900
C317        C  0.96530906  0.38101898  0.89644103     0.36300
C318        C  0.01653179  0.18355916  0.00749146     0.36300
N319        N  0.95548255  0.42104069  0.87390337    -0.38500
N320        N  0.02602710  0.14339618  0.02992580    -0.38500
N321        N  0.95614780  0.42125422  0.02976486    -0.38000
N322        N  0.01762997  0.14120585  0.87539705    -0.38000
C323        C  0.24669018  0.99268271  0.89402480    -0.04600
C324        C  0.27805377  0.03293480  0.92072436    -0.01800
C325        C  0.27626265  0.03581108  0.97504061     0.03200
C326        C  0.24236521  0.99902961  0.00323969    -0.04600
C327        C  0.21078663  0.95889273  0.97644485    -0.01800
C328        C  0.21344121  0.95536284  0.92216829     0.03200
C329        C  0.31383253  0.07052322  0.89255075     0.37900
C330        C  0.17397843  0.92208442  0.00436799     0.37900
C331        C  0.18038836  0.91428891  0.89536284     0.36300
C332        C  0.31135970  0.07526717  0.00172690     0.36300
N333        N  0.15413697  0.88137601  0.87415278    -0.38500
N334        N  0.33946729  0.10670270  0.02283295    -0.38500
N335        N  0.14461682  0.89267197  0.02647115    -0.38000
N336        N  0.34223823  0.10065133  0.87021213    -0.38000
C337        C  0.49756205  0.21605111  0.39649266    -0.04600
C338        C  0.53522541  0.24981256  0.42404571    -0.01800
C339        C  0.53462508  0.25086759  0.47845435     0.03200
C340        C  0.49573811  0.21872610  0.50638467    -0.04600
C341        C  0.45883153  0.18413880  0.47888680    -0.01800
C342        C  0.45958613  0.18297202  0.42432600     0.03200
C343        C  0.57301487  0.28623935  0.39676275     0.37900
C344        C  0.42103701  0.14817786  0.50656832     0.37900
C345        C  0.42160349  0.14680048  0.39707009     0.36300
C346        C  0.57328792  0.28700988  0.50506248     0.36300
N347        N  0.39104849  0.11806713  0.37555175    -0.38500
N348        N  0.60461128  0.31565053  0.52571855    -0.38500
N349        N  0.39091759  0.11943845  0.52855087    -0.38000
N350        N  0.60320088  0.31546075  0.37542582    -0.38000
C351        C  0.77951095  0.20877293  0.50490621    -0.04600
C352        C  0.82910250  0.22040920  0.47810086    -0.01800
C353        C  0.83040697  0.21848131  0.42332993     0.03200
C354        C  0.78197001  0.20583847  0.39518728    -0.04600
C355        C  0.73418207  0.18878666  0.42221059    -0.01800
C356        C  0.73290833  0.19028410  0.47667839     0.03200
C357        C  0.87750637  0.23853220  0.50647618     0.37900
C358        C  0.68579836  0.17030378  0.39374321     0.37900
C359        C  0.68302922  0.17365481  0.50367881     0.36300
C360        C  0.88062861  0.23250995  0.39588854     0.36300
N361        N  0.64325689  0.16031852  0.52511012    -0.38500
N362        N  0.92079314  0.24333001  0.37389160    -0.38500
N363        N  0.64733207  0.15525895  0.37111344    -0.38000
N364        N  0.91609569  0.25321218  0.52912125    -0.38000
C365        C  0.70662313  0.28844814  0.89541545    -0.04600
C366        C  0.69153196  0.33634379  0.92312257    -0.01800
C367        C  0.69281098  0.33642111  0.97799901     0.03200
C368        C  0.70859620  0.28846296  0.00527719    -0.04600
C369        C  0.72536568  0.24148371  0.97736569    -0.01800
C370        C  0.72469508  0.24154377  0.92304048     0.03200
C371        C  0.67465400  0.38535176  0.89530349     0.37900
C372        C  0.74797173  0.19431161  0.00454946     0.37900
C373        C  0.74743033  0.19468860  0.89560186     0.36300
C374        C  0.67825494  0.38572177  0.00634410     0.36300
N375        N  0.76650743  0.15777869  0.87386740    -0.38500
N376        N  0.66693913  0.42515726  0.02903019    -0.38500
N377        N  0.76695698  0.15715661  0.02612084    -0.38000
N378        N  0.66121475  0.42457898  0.87318128    -0.38000
C379        C  0.76607342  0.00939709  0.89293924    -0.04600
C380        C  0.72030647  0.03116979  0.91971389    -0.01800
C381        C  0.71994574  0.03178179  0.97415683     0.03200
C382        C  0.76535592  0.01061782  0.00215155    -0.04600
C383        C  0.81170713  0.99013112  0.97533800    -0.01800
C384        C  0.81206149  0.98953074  0.92085711     0.03200
C385        C  0.67297658  0.05190318  0.89124137     0.37900
C386        C  0.86003436  0.97185585  0.00377576     0.37900
C387        C  0.86075022  0.97076453  0.89348811     0.36300
C388        C  0.67215826  0.05299851  0.00131427     0.36300
N389        N  0.89967499  0.95621261  0.87157164    -0.38500
N390        N  0.63407389  0.07005286  0.02291962    -0.38500
N391        N  0.89874339  0.95764787  0.02642161    -0.38000
N392        N  0.63537469  0.06856697  0.86843878    -0.38000
C393        C  0.75692407  0.51095129  0.39250170    -0.04600
C394        C  0.79199356  0.47368161  0.41873689    -0.01800
C395        C  0.79343540  0.47294006  0.47306987     0.03200
C396        C  0.75910167  0.50875414  0.50143454    -0.04600
C397        C  0.72442621  0.54636099  0.47517869    -0.01800
C398        C  0.72417602  0.54822177  0.42091237     0.03200
C399        C  0.82809107  0.43723963  0.38994938     0.37900
C400        C  0.68682206  0.58145409  0.50377601     0.37900
C401        C  0.68886680  0.58762713  0.39457254     0.36300
C402        C  0.83160361  0.43645671  0.49960621     0.36300
N403        N  0.66103684  0.61942840  0.37376909    -0.38500
N404        N  0.86217922  0.40742387  0.52059964    -0.38500
N405        N  0.65664927  0.60922152  0.52650500    -0.38000
N406        N  0.85683233  0.40813406  0.36706500    -0.38000
C407        C  0.81175847  0.79144641  0.50284434    -0.04600
C408        C  0.82385324  0.74248494  0.47575934    -0.01800
C409        C  0.82189615  0.74113767  0.42129696     0.03200
C410        C  0.80896983  0.78950223  0.39255908    -0.04600
C411        C  0.80063590  0.83948925  0.41997091    -0.01800
C412        C  0.80112350  0.84015301  0.47479546     0.03200
C413        C  0.83607567  0.69228240  0.50431902     0.37900
C414        C  0.79119607  0.89045740  0.39208107     0.37900
C415        C  0.78667743  0.89002758  0.50235815     0.36300
C416        C  0.82956700  0.68839353  0.39580027     0.36300
N417        N  0.77467629  0.92965985  0.52441561    -0.38500
N418        N  0.83566191  0.64613102  0.37596128    -0.38500
N419        N  0.78380868  0.93125820  0.36995288    -0.38000
N420        N  0.84552656  0.65224620  0.52698606    -0.38000
C421        C  0.72419336  0.71389031  0.00249689    -0.04600
C422        C  0.77067671  0.69383067  0.97573827    -0.01800
C423        C  0.77230371  0.69489223  0.92127542     0.03200
C424        C  0.72653324  0.71519028  0.89238183    -0.04600
C425        C  0.67815586  0.73098602  0.91959029    -0.01800
C426        C  0.67739335  0.73104969  0.97435127     0.03200
C427        C  0.81802191  0.67349322  0.00465451     0.37900
C428        C  0.62895927  0.74752005  0.89157943     0.37900
C429        C  0.62973188  0.75208182  0.00174650     0.36300
C430        C  0.82298401  0.67797344  0.89594690     0.36300
N431        N  0.59184029  0.76915482  0.02363560    -0.38500
N432        N  0.86356356  0.66433446  0.87622014    -0.38500
N433        N  0.58960057  0.76064744  0.86933233    -0.38000
N434        N  0.85568532  0.65730445  0.02767512    -0.38000
C435        C  0.51036234  0.78341193  0.50254921    -0.04600
C436        C  0.47386821  0.74815425  0.47515873    -0.01800
C437        C  0.47466363  0.74672795  0.42077979     0.03200
C438        C  0.51083079  0.78154850  0.39274815    -0.04600
C439        C  0.54680704  0.81728583  0.41991979    -0.01800
C440        C  0.54677520  0.81804941  0.47449194     0.03200
C441        C  0.43662871  0.71124044  0.50248070     0.37900
C442        C  0.58327864  0.85425206  0.39187465     0.37900
C443        C  0.58352476  0.85566881  0.50150712     0.36300
C444        C  0.44008776  0.70681198  0.39401189     0.36300
N445        N  0.61303161  0.88558991  0.52288154    -0.38500
N446        N  0.41263305  0.67483546  0.37287184    -0.38500
N447        N  0.61248344  0.88370357  0.36964289    -0.38000
N448        N  0.40656126  0.68190000  0.52382109    -0.38000
C449        C  0.22671767  0.78451707  0.50550015    -0.04600
C450        C  0.27282987  0.80510512  0.47838065    -0.01800
C451        C  0.27293437  0.80658289  0.42388457     0.03200
C452        C  0.22605035  0.78816551  0.39530465    -0.04600
C453        C  0.17833904  0.77102364  0.42313791    -0.01800
C454        C  0.17904099  0.76866834  0.47786908     0.03200
C455        C  0.32120931  0.82373318  0.50689110     0.37900
C456        C  0.12831825  0.75526456  0.39589166     0.37900
C457        C  0.13179301  0.74691691  0.50567614     0.36300
C458        C  0.32323103  0.82410319  0.39806004     0.36300
N459        N  0.09421791  0.72932433  0.52787823    -0.38500
N460        N  0.36356553  0.83811540  0.37795274    -0.38500
N461        N  0.08829860  0.74256935  0.37437939    -0.38000
N462        N  0.35968520  0.83859496  0.52960482    -0.38000
C463        C  0.31204972  0.71088154  0.89616882    -0.04600
C464        C  0.30423266  0.66126268  0.92444107    -0.01800
C465        C  0.30432386  0.66166912  0.97931055     0.03200
C466        C  0.31366784  0.71127781  0.00643196    -0.04600
C467        C  0.32647360  0.75957630  0.97845139    -0.01800
C468        C  0.32470280  0.75987181  0.92399964     0.03200
C469        C  0.29582275  0.60966743  0.89732519     0.37900
C470        C  0.33974782  0.81005588  0.00611441     0.37900
C471        C  0.33193825  0.81223170  0.89753979     0.36300
C472        C  0.29157405  0.61174235  0.00775531     0.36300
N473        N  0.33756283  0.85423107  0.87693848    -0.38500
N474        N  0.28125533  0.57189701  0.03042487    -0.38500
N475        N  0.35023385  0.85018617  0.02821661    -0.38000
N476        N  0.28933351  0.56838486  0.87577828    -0.38000
C477        C  0.00906141  0.71439266  0.00174138    -0.04600
C478        C  0.97218224  0.74949397  0.97483925    -0.01800
C479        C  0.97180367  0.75066644  0.92051378     0.03200
C480        C  0.00817100  0.71662037  0.89211980    -0.04600
C481        C  0.04385758  0.68034829  0.91888610    -0.01800
C482        C  0.04485401  0.67977460  0.97342521     0.03200
C483        C  0.93626538  0.78704975  0.00263840     0.37900
C484        C  0.07840096  0.64218975  0.89044330     0.37900
C485        C  0.08245806  0.64294315  0.00017890     0.36300
C486        C  0.93512425  0.78899736  0.89430373     0.36300
N487        N  0.11280490  0.61379260  0.02132038    -0.38500
N488        N  0.90556586  0.81934541  0.87367687    -0.38500
N489        N  0.10576391  0.61155201  0.86783692    -0.38000
N490        N  0.90742909  0.81707301  0.02434313    -0.38000
C491        C  0.24181564  0.49187189  0.50641607    -0.04600
C492        C  0.27278838  0.45203806  0.47926470    -0.01800
C493        C  0.27691146  0.45466601  0.42503539     0.03200
C494        C  0.25050834  0.49759065  0.39710455    -0.04600
C495        C  0.21879846  0.53694818  0.42437925    -0.01800
C496        C  0.21383371  0.53350974  0.47859107     0.03200
C497        C  0.30233958  0.40911975  0.50701462     0.37900
C498        C  0.18980151  0.58039033  0.39694746     0.37900
C499        C  0.17778205  0.57159308  0.50546752     0.36300
C500        C  0.31019915  0.41371943  0.39863143     0.36300
N501        N  0.14867562  0.60167649  0.52675838    -0.38500
N502        N  0.33651959  0.38068693  0.37799110    -0.38500
N503        N  0.16688149  0.61530692  0.37529038    -0.38000
N504        N  0.32579387  0.37477665  0.52898080    -0.38000
loop_ 
_geom_bond_atom_site_label_1 
_geom_bond_atom_site_label_2 
_geom_bond_distance 
_geom_bond_site_symmetry_2 
_ccdc_geom_bond_type 
C1            N2   1.347       .  A
C1            N6   1.352       .  A
C1          C494   1.492       .  S
N2            C3   1.353       .  A
C3            N4   1.365       .  A
C3          C277   1.465       .  S
N4            C5   1.368       .  A
C5            N6   1.360       .  A
C5           C67   1.464       .  S
C7            N8   1.349       .  A
C7           N12   1.350       .  A
C7          C491   1.486       .  S
N8            C9   1.356       .  A
C9           N10   1.369       .  A
C9          C252   1.465       .  S
N10          C11   1.368       .  A
C11          N12   1.358       .  A
C11          C43   1.472       .  S
C13          N14   1.348   1_455  A
C13          N18   1.351       .  A
C13         C480   1.487       .  S
N14          C15   1.354       .  A
C15          N16   1.368   1_655  A
C15         C101   1.468       .  S
N16          C17   1.370       .  A
C17          N18   1.358       .  A
C17          C42   1.469       .  S
C19          N20   1.347   1_455  A
C19          N24   1.350       .  A
C19         C477   1.487       .  S
N20          C21   1.354       .  A
C21          N22   1.364   1_655  A
C21         C125   1.460       .  S
N22          C23   1.365       .  A
C23          N24   1.360       .  A
C23          C70   1.465       .  S
Zn25         O29   2.004       .  S
Zn25         O30   2.049       .  S
Zn25         O34   2.055       .  S
Zn25         O41   2.049       .  S
Zn26         O29   1.974       .  S
Zn26         O31   2.073       .  S
Zn26         O33   2.012       .  S
Zn26         O37   2.055       .  S
Zn27         O29   1.914       .  S
Zn27         O32   1.989       .  S
Zn27         O35   1.978       .  S
Zn27         O38   1.980       .  S
Zn28         O29   1.964       .  S
Zn28         O36   2.038       .  S
Zn28         O39   2.012       .  S
Zn28         O40   1.995       .  S
O30          C42   1.276       .  A
O31          C43   1.278       .  A
O32          C44   1.268       .  A
O33          C42   1.276       .  A
O34          C44   1.275       .  A
O35          C43   1.271       .  A
O36          C45   1.271       .  A
O37          C46   1.277       .  A
O38          C45   1.270       .  A
O39          C46   1.273       .  A
O40          C47   1.272       .  A
O41          C47   1.276       .  A
C44         C449   1.487       .  S
C45          C81   1.463       .  S
C46         C463   1.507       .  S
C47         C213   1.463       .  S
Zn48         O52   1.974       .  S
Zn48         O53   2.034       .  S
Zn48         O57   1.988       .  S
Zn48         O64   2.061       .  S
Zn49         O52   1.970       .  S
Zn49         O54   2.013       .  S
Zn49         O56   2.023       .  S
Zn49         O60   2.066       .  S
Zn50         O52   2.006       .  S
Zn50         O55   2.061       .  S
Zn50         O58   2.067       .  S
Zn50         O61   2.074       .  S
Zn51         O52   1.903       .  S
Zn51         O59   1.975       .  S
Zn51         O62   1.966       .  S
Zn51         O63   1.957       .  S
O53          C65   1.275       .  A
O54          C66   1.276       .  A
O55          C67   1.279       .  A
O56          C65   1.274       .  A
O57          C67   1.272       .  A
O58          C66   1.279       .  A
O59          C68   1.267       .  A
O60          C69   1.274       .  A
O61          C68   1.277       .  A
O62          C69   1.269       .  A
O63          C70   1.267       .  A
O64          C70   1.275       .  A
C65         C452   1.508       .  S
C66          C75   1.472       .  S
C68         C466   1.491       .  S
C69         C219   1.469       .  S
C71          N72   1.352       .  A
C71          N76   1.350       .  A
C71         C438   1.489       .  S
N72          C73   1.359       .  A
C73          N74   1.371       .  A
C73         C127   1.473       .  S
N74          C75   1.369       .  A
C75          N76   1.354       .  A
C77          N78   1.350       .  A
C77          N82   1.349       .  A
C77         C435   1.492       .  S
N78          C79   1.360       .  A
C79          N80   1.366       .  A
C79         C105   1.466       .  S
N80          C81   1.366       .  A
C81          N82   1.355       .  A
Zn83         O87   1.904       .  S
Zn83         O88   1.963       .  S
Zn83         O92   1.966       .  S
Zn83         O99   1.954       .  S
Zn84         O87   1.966       .  S
Zn84         O89   1.983       .  S
Zn84         O91   2.044       .  S
Zn84         O95   2.010       .  S
Zn85         O87   2.012       .  S
Zn85         O90   2.080       .  S
Zn85         O93   2.077       .  S
Zn85         O96   2.073       .  S
Zn86         O87   1.975       .  S
Zn86         O94   2.008       .  S
Zn86         O97   2.045       .  S
Zn86         O98   2.072       .  S
O88         C100   1.268       .  A
O89         C101   1.272       .  A
O90         C102   1.278       .  A
O91         C100   1.270       .  A
O92         C102   1.266       .  A
O93         C101   1.280       .  A
O94         C103   1.275       .  A
O95         C104   1.272       .  A
O96         C103   1.280       .  A
O97         C104   1.276       .  A
O98         C105   1.276       .  A
O99         C105   1.267       .  A
C100        C139   1.462       .  S
C102        C407   1.489       .  S
C103        C145   1.472       .  S
C104        C424   1.506       .  S
Zn106       O110   1.964       .  S
Zn106       O111   2.009       .  S
Zn106       O115   2.034       .  S
Zn106       O122   1.983       .  S
Zn107       O110   1.975       .  S
Zn107       O112   2.079       .  S
Zn107       O114   2.055       .  S
Zn107       O118   2.018       .  S
Zn108       O110   1.910       .  S
Zn108       O113   1.970       .  S
Zn108       O116   1.966       .  S
Zn108       O119   1.976       .  S
Zn109       O110   2.009       .  S
Zn109       O117   2.065       .  S
Zn109       O120   2.061       .  S
Zn109       O121   2.061       .  S
O111        C123   1.272       .  A
O112        C124   1.279       .  A
O113        C125   1.268       .  A
O114        C123   1.277       .  A
O115        C125   1.269       .  A
O116        C124   1.269       .  A
O117        C126   1.276       .  A
O118        C127   1.277       .  A
O119        C126   1.267       .  A
O120        C127   1.278       .  A
O121        C128   1.277       .  A
O122        C128   1.272       .  A
C123        C410   1.508       .  S
C124        C149   1.471       .  S
C126        C421   1.486       .  S
C128        C131   1.463       .  S
C129        N130   1.347       .  A
C129        N134   1.347       .  A
C129        C393   1.476       .  S
N130        C131   1.354       .  A
C131        N132   1.369       .  A
N132        C133   1.369       .  A
C133        N134   1.355       .  A
C133        C196   1.468       .  S
C135        N136   1.348       .  A
C135        N140   1.345       .  A
C135        C396   1.476       .  S
N136        C137   1.357       .  A
C137        N138   1.368       .  A
C137        C173   1.465       .  S
N138        C139   1.366       .  A
C139        N140   1.353       .  A
C141        N142   1.348       .  A
C141        N146   1.351   1_545  A
C141        C379   1.479       .  S
N142        C143   1.354       .  A
C143        N144   1.370       .  A
C143        C170   1.469       .  S
N144        C145   1.370   1_545  A
C145        N146   1.358       .  A
C147        N148   1.349   1_545  A
C147        N152   1.349       .  A
C147        C382   1.481       .  S
N148        C149   1.359       .  A
C149        N150   1.367   1_565  A
N150        C151   1.367       .  A
C151        N152   1.356       .  A
C151        C193   1.464       .  S
Zn153       O157   1.966       .  S
Zn153       O158   2.020       .  S
Zn153       O162   2.068       .  S
Zn153       O169   2.030       .  S
Zn154       O157   2.001       .  S
Zn154       O159   2.062       .  S
Zn154       O161   2.050       .  S
Zn154       O165   2.051       .  S
Zn155       O157   1.910       .  S
Zn155       O160   1.977       .  S
Zn155       O163   2.002       .  S
Zn155       O166   1.979       .  S
Zn156       O157   1.978       .  S
Zn156       O164   2.041       .  S
Zn156       O167   1.988       .  S
Zn156       O168   2.031       .  S
O158        C170   1.277       .  A
O159        C171   1.276       .  A
O160        C172   1.271       .  A
O161        C170   1.276       .  A
O162        C172   1.276       .  A
O163        C171   1.270       .  A
O164        C173   1.272       .  A
O165        C174   1.277       .  A
O166        C173   1.271       .  A
O167        C174   1.272       .  A
O168        C175   1.273       .  A
O169        C175   1.276       .  A
C171        C351   1.494       .  S
C172        C207   1.469       .  S
C174        C227   1.464       .  S
C175        C365   1.492       .  S
Zn176       O180   1.972       .  S
Zn176       O181   1.997       .  S
Zn176       O185   2.022       .  S
Zn176       O192   2.050       .  S
Zn177       O180   2.007       .  S
Zn177       O182   2.065       .  S
Zn177       O184   2.054       .  S
Zn177       O188   2.069       .  S
Zn178       O180   1.975       .  S
Zn178       O183   2.033       .  S
Zn178       O186   2.008       .  S
Zn178       O189   2.053       .  S
Zn179       O180   1.913       .  S
Zn179       O187   1.986       .  S
Zn179       O190   1.991       .  S
Zn179       O191   1.969       .  S
O181        C193   1.272       .  A
O182        C194   1.278       .  A
O183        C195   1.273       .  A
O184        C193   1.277       .  A
O185        C195   1.274       .  A
O186        C194   1.275       .  A
O187        C196   1.272       .  A
O188        C197   1.277       .  A
O189        C196   1.274       .  A
O190        C197   1.269       .  A
O191        C198   1.269       .  A
O192        C198   1.273       .  A
C194        C233   1.472       .  S
C195        C368   1.489       .  S
C197        C354   1.491       .  S
C198        C201   1.464       .  S
C199        N200   1.349       .  A
C199        N204   1.349       .  A
C199        C337   1.492       .  S
N200        C201   1.357       .  A
C201        N202   1.365       .  A
N202        C203   1.365       .  A
C203        N204   1.359       .  A
C203        C280   1.464       .  S
C205        N206   1.347       .  A
C205        N210   1.353       .  A
C205        C340   1.493       .  S
N206        C207   1.353       .  A
C207        N208   1.368       .  A
N208        C209   1.371       .  A
C209        N210   1.360       .  A
C209        C254   1.471       .  S
C211        N212   1.350       .  A
C211        N216   1.346   1_565  A
C211        C323   1.483       .  S
N212        C213   1.358       .  A
C213        N214   1.369       .  A
N214        C215   1.366   1_565  A
C215        N216   1.355       .  A
C215        C255   1.469       .  S
C217        N218   1.346   1_545  A
C217        N222   1.351       .  A
C217        C326   1.485   1_545  S
N218        C219   1.353       .  A
C219        N220   1.368   1_565  A
N220        C221   1.370       .  A
C221        N222   1.358       .  A
C221        C279   1.466       .  S
C223        N224   1.350   1_655  A
C223        N228   1.351       .  A
C223        C309   1.476       .  S
N224        C225   1.356       .  A
C225        N226   1.364   1_455  A
C225        C256   1.465       .  S
N226        C227   1.365       .  A
C227        N228   1.359       .  A
C229        N230   1.350   1_655  A
C229        N234   1.349       .  A
C229        C312   1.475       .  S
N230        C231   1.357       .  A
C231        N232   1.370   1_455  A
C231        C276   1.473       .  S
N232        C233   1.370       .  A
C233        N234   1.357       .  A
Zn235       O239   2.004       .  S
Zn235       O240   2.056       .  S
Zn235       O244   2.060       .  S
Zn235       O251   2.062       .  S
Zn236       O239   1.967       .  S
Zn236       O241   2.022       .  S
Zn236       O243   1.999       .  S
Zn236       O247   2.047       .  S
Zn237       O239   1.980       .  S
Zn237       O242   2.011       .  S
Zn237       O245   2.050       .  S
Zn237       O248   2.074       .  S
Zn238       O239   1.913       .  S
Zn238       O246   1.959       .  S
Zn238       O249   1.976       .  S
Zn238       O250   1.986       .  S
O240        C252   1.278       .  A
O241        C253   1.274       .  A
O242        C254   1.275       .  A
O243        C252   1.273       .  A
O244        C254   1.278       .  A
O245        C253   1.277       .  A
O246        C255   1.269       .  A
O247        C256   1.273       .  A
O248        C255   1.277       .  A
O249        C256   1.268       .  A
O250        C257   1.268       .  A
O251        C257   1.275       .  A
C253        C284   1.510       .  S
C257        C295   1.487       .  S
Zn258       O262   1.907       .  S
Zn258       O263   1.977       .  S
Zn258       O267   1.961       .  S
Zn258       O274   1.955       .  S
Zn259       O262   2.003       .  S
Zn259       O264   2.069       .  S
Zn259       O266   2.074       .  S
Zn259       O270   2.065       .  S
Zn260       O262   1.970       .  S
Zn260       O265   2.060       .  S
Zn260       O268   2.014       .  S
Zn260       O271   2.018       .  S
Zn261       O262   1.977       .  S
Zn261       O269   2.040       .  S
Zn261       O272   1.998       .  S
Zn261       O273   2.062       .  S
O263        C275   1.267       .  A
O264        C276   1.279       .  A
O265        C277   1.274       .  A
O266        C275   1.277       .  A
O267        C277   1.267       .  A
O268        C276   1.276       .  A
O269        C278   1.276       .  A
O270        C279   1.279       .  A
O271        C278   1.273       .  A
O272        C279   1.273       .  A
O273        C280   1.275       .  A
O274        C280   1.267       .  A
C275        C281   1.489       .  S
C278        C298   1.507       .  S
C281        C282   1.410       .  A
C281        C286   1.411       .  A
C282        C283   1.419       .  A
C282        C287   1.451       .  S
C283        C284   1.422       .  A
C283        C290   1.450       .  S
C284        C285   1.424       .  A
C285        C286   1.412       .  A
C285        C288   1.453       .  S
C286        C289   1.454       .  S
C287        N294   1.157       .  T
C288        N293   1.158       .  T
C289        N291   1.157       .  T
C290        N292   1.157       .  T
C295        C296   1.410       .  A
C295        C300   1.410       .  A
C296        C297   1.419       .  A
C296        C301   1.450       .  S
C297        C298   1.423   1_556  A
C297        C304   1.450   1_556  S
C298        C299   1.424   1_554  A
C299        C300   1.410       .  A
C299        C302   1.453   1_556  S
C300        C303   1.454       .  S
C301        N308   1.157       .  T
C302        N307   1.158       .  T
C303        N305   1.157       .  T
C304        N306   1.158       .  T
C309        C310   1.411   1_655  A
C309        C314   1.412       .  A
C310        C311   1.406       .  A
C310        C315   1.452       .  S
C311        C312   1.411   1_456  A
C311        C318   1.452   1_556  S
C312        C313   1.411   1_554  A
C313        C314   1.412       .  A
C313        C316   1.450   1_556  S
C314        C317   1.450       .  S
C315        N322   1.157       .  T
C316        N321   1.157       .  T
C317        N319   1.157       .  T
C318        N320   1.157       .  T
C323        C324   1.415   1_565  A
C323        C328   1.413       .  A
C324        C325   1.408       .  A
C324        C329   1.453       .  S
C325        C326   1.414   1_546  A
C325        C332   1.453   1_556  S
C326        C327   1.418   1_554  A
C327        C328   1.409       .  A
C327        C330   1.453   1_556  S
C328        C331   1.453       .  S
C329        N336   1.157       .  T
C330        N335   1.158       .  T
C331        N333   1.158       .  T
C332        N334   1.158       .  T
C337        C338   1.416       .  A
C337        C342   1.416       .  A
C338        C339   1.409       .  A
C338        C343   1.454       .  S
C339        C340   1.419       .  A
C339        C346   1.454       .  S
C340        C341   1.416       .  A
C341        C342   1.413       .  A
C341        C344   1.452       .  S
C342        C345   1.452       .  S
C343        N350   1.158       .  T
C344        N349   1.158       .  T
C345        N347   1.157       .  T
C346        N348   1.158       .  T
C351        C352   1.416       .  A
C351        C356   1.415       .  A
C352        C353   1.419       .  A
C352        C357   1.449       .  S
C353        C354   1.412       .  A
C353        C360   1.449       .  S
C354        C355   1.414       .  A
C355        C356   1.411       .  A
C355        C358   1.453       .  S
C356        C359   1.453       .  S
C357        N364   1.157       .  T
C358        N363   1.157       .  T
C359        N361   1.157       .  T
C360        N362   1.157       .  T
C365        C366   1.416       .  A
C365        C370   1.413       .  A
C366        C367   1.421       .  A
C366        C371   1.449       .  S
C367        C368   1.414   1_556  A
C367        C374   1.449   1_556  S
C368        C369   1.412   1_554  A
C369        C370   1.406       .  A
C369        C372   1.451   1_556  S
C370        C373   1.452       .  S
C371        N378   1.157       .  T
C372        N377   1.156       .  T
C373        N375   1.156       .  T
C374        N376   1.157       .  T
C379        C380   1.412       .  A
C379        C384   1.412   1_545  A
C380        C381   1.409       .  A
C380        C385   1.452       .  S
C381        C382   1.413   1_556  A
C381        C388   1.451   1_556  S
C382        C383   1.413   1_544  A
C383        C384   1.410       .  A
C383        C386   1.451   1_556  S
C384        C387   1.451       .  S
C385        N392   1.157       .  T
C386        N391   1.157       .  T
C387        N389   1.157       .  T
C388        N390   1.157       .  T
C393        C394   1.414       .  A
C393        C398   1.413       .  A
C394        C395   1.407       .  A
C394        C399   1.453       .  S
C395        C396   1.412       .  A
C395        C402   1.452       .  S
C396        C397   1.414       .  A
C397        C398   1.405       .  A
C397        C400   1.453       .  S
C398        C401   1.453       .  S
C399        N406   1.158       .  T
C400        N405   1.157       .  T
C401        N403   1.157       .  T
C402        N404   1.157       .  T
C407        C408   1.412       .  A
C407        C412   1.410       .  A
C408        C409   1.411       .  A
C408        C413   1.455       .  S
C409        C410   1.424       .  A
C409        C416   1.454       .  S
C410        C411   1.421       .  A
C411        C412   1.419       .  A
C411        C414   1.450       .  S
C412        C415   1.450       .  S
C413        N420   1.157       .  T
C414        N419   1.157       .  T
C415        N417   1.157       .  T
C416        N418   1.158       .  T
C421        C422   1.411   1_554  A
C421        C426   1.409   1_554  A
C422        C423   1.410       .  A
C422        C427   1.455   1_556  S
C423        C424   1.424       .  A
C423        C430   1.453       .  S
C424        C425   1.422       .  A
C425        C426   1.417       .  A
C425        C428   1.450       .  S
C426        C429   1.450   1_556  S
C427        N434   1.157       .  T
C428        N433   1.157       .  T
C429        N431   1.157       .  T
C430        N432   1.158       .  T
C435        C436   1.418       .  A
C435        C440   1.417       .  A
C436        C437   1.408       .  A
C436        C441   1.453       .  S
C437        C438   1.416       .  A
C437        C444   1.454       .  S
C438        C439   1.414       .  A
C439        C440   1.413       .  A
C439        C442   1.452       .  S
C440        C443   1.452       .  S
C441        N448   1.158       .  T
C442        N447   1.157       .  T
C443        N445   1.158       .  T
C444        N446   1.158       .  T
C449        C450   1.410       .  A
C449        C454   1.409       .  A
C450        C451   1.411       .  A
C450        C455   1.454       .  S
C451        C452   1.425       .  A
C451        C458   1.453       .  S
C452        C453   1.424       .  A
C453        C454   1.418       .  A
C453        C456   1.451       .  S
C454        C457   1.451       .  S
C455        N462   1.157       .  T
C456        N461   1.157       .  T
C457        N459   1.157       .  T
C458        N460   1.158       .  T
C463        C464   1.421       .  A
C463        C468   1.423       .  A
C464        C465   1.420       .  A
C464        C469   1.450       .  S
C465        C466   1.412   1_556  A
C465        C472   1.450   1_556  S
C466        C467   1.411   1_554  A
C467        C468   1.410       .  A
C467        C470   1.455   1_556  S
C468        C471   1.453       .  S
C469        N476   1.157       .  T
C470        N475   1.157       .  T
C471        N473   1.158       .  T
C472        N474   1.157       .  T
C477        C478   1.417   1_454  A
C477        C482   1.415   1_554  A
C478        C479   1.406       .  A
C478        C483   1.454   1_556  S
C479        C480   1.417   1_655  A
C479        C486   1.454       .  S
C480        C481   1.415       .  A
C481        C482   1.412       .  A
C481        C484   1.452       .  S
C482        C485   1.452   1_556  S
C483        N490   1.157       .  T
C484        N489   1.158       .  T
C485        N487   1.157       .  T
C486        N488   1.157       .  T
C491        C492   1.414       .  A
C491        C496   1.414       .  A
C492        C493   1.409       .  A
C492        C497   1.453       .  S
C493        C494   1.420       .  A
C493        C500   1.454       .  S
C494        C495   1.417       .  A
C495        C496   1.411       .  A
C495        C498   1.452       .  S
C496        C499   1.452       .  S
C497        N504   1.158       .  T
C498        N503   1.158       .  T
C499        N501   1.157       .  T
C500        N502   1.157       .  T
