geometry optimzed in LAMMPS
_audit_creation_date              2020-12-01 
_audit_creation_method            'lammps2cif' 
_symmetry_space_group_name_H-M    'P1' 
_symmetry_Int_Tables_number       1 
_symmetry_cell_setting            triclinic 
loop_ 
_symmetry_equiv_pos_as_xyz 
  x,y,z 
_cell_length_a                    36.68644768 
_cell_length_b                    36.86963611190184 
_cell_length_c                    30.510893288456742 
_cell_angle_alpha                 90.51971700796175 
_cell_angle_beta                  89.20699961643444 
_cell_angle_gamma                 119.89835107735163 
loop_ 
_atom_site_label 
_atom_site_type_symbol 
_atom_site_fract_x 
_atom_site_fract_y 
_atom_site_fract_z 
_atom_site_charge 
C1          C  0.66750331  0.33702813  0.07550128     0.30100
C2          C  0.67158828  0.33578201  0.98561654     0.30100
C3          C  0.69085023  0.31551907  0.05575592    -0.06100
C4          C  0.62552796  0.31531748  0.05165879    -0.06900
C5          C  0.69084423  0.38003358  0.05290592    -0.06700
C6          C  0.69305869  0.31485010  0.00999261    -0.06100
C7          C  0.62737134  0.31467601  0.00626762    -0.06800
C8          C  0.69299291  0.37953300  0.00725096    -0.06700
C9          C  0.72270176  0.30332178  0.99943776    -0.32100
N10         N  0.73735174  0.29568824  0.03695639     0.14400
C11         C  0.71907534  0.30446814  0.07133910    -0.32100
H12         H  0.72762214  0.30518443  0.10523000     0.16300
C13         C  0.58644915  0.29429665  0.99165952    -0.31100
N14         N  0.56007499  0.28248230  0.02711859     0.13100
C15         C  0.58387331  0.29532906  0.06385754    -0.31100
C16         C  0.71814576  0.42047730  0.99400004    -0.31400
N17         N  0.73073556  0.44567957  0.03004104     0.13600
H18         H  0.72774798  0.43102475  0.96067974     0.16200
C19         C  0.71465763  0.42104988  0.06608545    -0.31400
H20         H  0.72009632  0.43212956  0.09957797     0.16200
H21         H  0.57186396  0.29124028  0.09711105     0.16200
H22         H  0.73380360  0.30189051  0.96684015     0.16300
H23         H  0.57668960  0.28828724  0.95781138     0.16200
C24         C  0.66667477  0.33218514  0.48579324     0.30100
C25         C  0.66090571  0.33243773  0.57576345     0.30100
C26         C  0.68993506  0.31344253  0.51065734    -0.06100
C27         C  0.68500793  0.37556288  0.50784854    -0.06900
C28         C  0.62216241  0.30815159  0.50566993    -0.06700
C29         C  0.68606178  0.31264824  0.55632499    -0.06100
C30         C  0.68138941  0.37534763  0.55338698    -0.06800
C31         C  0.61921456  0.30781721  0.55120997    -0.06700
C32         C  0.70359414  0.28976330  0.57181906    -0.32100
N33         N  0.72009823  0.27888007  0.53748936     0.14400
C34         C  0.71253044  0.29373447  0.50016508    -0.32100
H35         H  0.72170609  0.28914084  0.46768871     0.16300
C36         C  0.69994678  0.41630020  0.56724503    -0.31100
N37         N  0.71560713  0.44157687  0.53164057     0.13100
C38         C  0.70733830  0.41705705  0.49540044    -0.31100
C39         C  0.57757750  0.28195000  0.56207470    -0.31400
N40         N  0.55509682  0.26781365  0.52462895     0.13600
H41         H  0.56439348  0.27383427  0.59481953     0.16200
C42         C  0.58207343  0.28356238  0.48991282    -0.31400
H43         H  0.57333175  0.27688108  0.45581807     0.16200
H44         H  0.71724024  0.42881835  0.46249796     0.16200
H45         H  0.70351134  0.28065870  0.60541810     0.16300
H46         H  0.70273674  0.42691277  0.60086464     0.16200
C47         C  0.33211609  0.66098786  0.01543201     0.30100
C48         C  0.32989780  0.66294538  0.92566063     0.30100
C49         C  0.30833806  0.68176761  0.99632638    -0.06100
C50         C  0.37510514  0.68573913  0.99199383    -0.06900
C51         C  0.31216622  0.61869397  0.99196070    -0.06700
C52         C  0.30707017  0.68273730  0.95067041    -0.06100
C53         C  0.37417112  0.68671328  0.94629846    -0.06800
C54         C  0.31088843  0.61947295  0.94661384    -0.06700
C55         C  0.28964674  0.70726713  0.94036471    -0.32100
N56         N  0.27998868  0.72065088  0.97810596     0.14400
C57         C  0.29222532  0.70608192  0.01232100    -0.32100
H58         H  0.29058406  0.71372589  0.04631392     0.16300
C59         C  0.41532357  0.71159957  0.93222069    -0.31100
N60         N  0.44088398  0.72501561  0.96768382     0.13100
C61         C  0.41647908  0.71014454  0.00427749    -0.31100
C62         C  0.29314416  0.57857927  0.93228290    -0.31400
N63         N  0.28395135  0.55325615  0.96783186     0.13600
H64         H  0.28850792  0.56825361  0.89847813     0.16200
C65         C  0.29539660  0.57767984  0.00439193    -0.31400
H66         H  0.29194105  0.56653906  0.03771862     0.16200
H67         H  0.42821603  0.71641828  0.03739889     0.16200
H68         H  0.28628086  0.71667779  0.90788806     0.16300
H69         H  0.42609526  0.72016988  0.89876116     0.16200
C70         C  0.32647840  0.66311715  0.42429940     0.30100
C71         C  0.33103742  0.66491198  0.51388820     0.30100
C72         C  0.30112317  0.68024250  0.44829449    -0.06100
C73         C  0.31141000  0.62115726  0.44664939    -0.06900
C74         C  0.37055496  0.69081600  0.44346184    -0.06700
C75         C  0.30325073  0.68148302  0.49425193    -0.06100
C76         C  0.31363553  0.62168843  0.49197024    -0.06800
C77         C  0.37310148  0.69164243  0.48902089    -0.06700
C78         C  0.29327687  0.71174019  0.50743550    -0.32100
N79         N  0.28387800  0.72703305  0.47168568     0.14400
C80         C  0.29028925  0.70931297  0.43567933    -0.32100
H81         H  0.28927828  0.71861460  0.40239820     0.16300
C82         C  0.29529633  0.58042752  0.50521742    -0.31100
N83         N  0.28190654  0.55534256  0.46901429     0.13100
C84         C  0.29178594  0.58018315  0.43315471    -0.31100
C85         C  0.41465812  0.71890509  0.49932303    -0.31400
N86         N  0.43705659  0.73455835  0.46146094     0.13600
H87         H  0.42755546  0.72722759  0.53192273     0.16200
C88         C  0.41013720  0.71808587  0.42738457    -0.31400
H89         H  0.41894236  0.72527563  0.39327380     0.16200
H90         H  0.28461963  0.56927798  0.39963367     0.16200
H91         H  0.29590290  0.72432081  0.54013464     0.16300
H92         H  0.29045805  0.56946626  0.53872807     0.16200
O93         O  0.05453605  0.98386479  0.05807600    -0.88200
C94         C  0.06332504  0.05891233  0.95732643     0.87800
Mg95       Mg  0.00789522  0.91869538  0.05871211     1.58100
O96         O  0.01972797  0.07421288  0.05437000    -0.87900
O97         O  0.07505444  0.04034291  0.09790798    -0.75300
C98         C  0.82801543  0.91220708  0.00984674     0.92900
O99         O  0.03530475  0.96056769  0.95615309    -0.75100
O100        O  0.84536560  0.88977093  0.00531681    -0.82600
Mg101      Mg  0.09106785  0.00627116  0.99862469     1.58000
C102        C  0.91237747  0.08477963  0.04856109     0.92800
O103        O  0.15218430  0.05188103  0.03423608    -0.80900
H104        H  0.02386686  0.08680857  0.11855870    -0.06200
C105        C  0.93498489  0.99995173  0.96227933     0.87700
O106        O  0.96456169  0.93117635  0.10362391    -0.75400
O107        O  0.07197160  0.05235979  0.99436535    -0.88100
O108        O  0.94967659  0.10166036  0.03290069    -0.80900
C109        C  0.08158904  0.16929069  0.99388647     0.92900
C110        C  0.17238272  0.09062985  0.04429732     0.92800
Mg111      Mg  0.90995566  0.99528244  0.05800990     1.58000
O112        O  0.84859431  0.95013227  0.02286824    -0.80900
O113        O  0.96646464  0.04047416  0.09963320    -0.75100
O114        O  0.10053289  0.15109649  0.00911572    -0.80900
O115        O  0.11121459  0.95725657  0.00154888    -0.82700
O116        O  0.89963391  0.84869512  0.04118062    -0.81000
C117        C  0.00425644  0.06845040  0.09168713     0.87200
O118        O  0.92779793  0.94796032  0.06091677    -0.88100
O119        O  0.94576368  0.01762186  0.99820676    -0.88200
O120        O  0.92502943  0.96193264  0.95727386    -0.75300
Mg121      Mg  0.08517213  0.09284435  0.05036380     1.58000
O122        O  0.04175272  0.15056344  0.99085587    -0.82700
H123        H  0.06378379  0.98469065  0.12260035    -0.06400
O124        O  0.98100899  0.92796617  0.00028313    -0.87900
H125        H  0.97796152  0.91474408  0.93628638    -0.06200
H126        H  0.91865636  0.94232119  0.12581030    -0.06400
C127        C  0.99712544  0.93321067  0.96335749     0.87200
C128        C  0.06472248  0.00206605  0.09384292     0.87800
C129        C  0.93574388  0.94012215  0.09771572     0.87800
H130        H  0.93540588  0.01771837  0.93409186    -0.06400
O131        O  0.03460702  0.06794320  0.95119351    -0.75400
Mg132      Mg  0.91508922  0.90889619  0.00332109     1.58000
H133        H  0.07971422  0.05551591  0.92927315    -0.06400
C134        C  0.08937780  0.91783696  0.00679235     0.92800
O135        O  0.95879195  0.85028183  0.06052725    -0.82600
C136        C  0.91918574  0.83061312  0.05516722     0.92800
O137        O  0.15436813  0.11245416  0.04726864    -0.82600
Mg138      Mg  0.99239236  0.08230405  0.99571185     1.58200
O139        O  0.05142528  0.90042702  0.02071224    -0.80900
O140        O  0.89102458  0.04561537  0.05613240    -0.82600
O141        O  0.97851170  0.05258723  0.44419101    -0.88200
C142        C  0.06092376  0.06298933  0.53927706     0.87800
Mg143      Mg  0.91279030  0.00687202  0.44643564     1.58100
O144        O  0.06960581  0.01655057  0.44151653    -0.87900
O145        O  0.03295928  0.07105929  0.40070324    -0.75300
C146        C  0.90713610  0.82786117  0.49414692     0.92900
O147        O  0.96079378  0.03327832  0.54713677    -0.75100
O148        O  0.88503567  0.84555385  0.49827415    -0.82600
Mg149      Mg  0.00479368  0.08841161  0.50297724     1.58000
C150        C  0.07823969  0.90745053  0.45165754     0.92800
O151        O  0.04867169  0.14934882  0.46596006    -0.80900
H152        H  0.08096643  0.01867220  0.37704144    -0.06200
C153        C  0.99827210  0.93570813  0.53867464     0.87700
O154        O  0.92433773  0.96340473  0.40057336    -0.75400
O155        O  0.05094130  0.06936022  0.50287393    -0.88100
O156        O  0.09776508  0.94614203  0.46209834    -0.80900
C157        C  0.16845879  0.07966101  0.49338380     0.92900
C158        C  0.08665308  0.16914957  0.45224192     0.92800
Mg159      Mg  0.98999341  0.90806253  0.44386649     1.58000
O160        O  0.94540585  0.84806830  0.48147096    -0.80900
O161        O  0.03481089  0.96224153  0.39886528    -0.75100
O162        O  0.14857413  0.09773800  0.48065800    -0.80900
O163        O  0.95637342  0.10837721  0.50476321    -0.82700
O164        O  0.84479829  0.89944323  0.46267285    -0.81000
C165        C  0.06303023  0.00008769  0.40486458     0.87200
O166        O  0.94354738  0.92756168  0.44173627    -0.88100
O167        O  0.01526683  0.94521830  0.50208114    -0.88200
O168        O  0.95998940  0.92557636  0.54454716    -0.75300
Mg169      Mg  0.08816415  0.08177185  0.44413230     1.58000
O170        O  0.15041310  0.04011476  0.49797248    -0.82700
H171        H  0.97626357  0.06064057  0.37978693    -0.06400
O172        O  0.92404103  0.98011159  0.50361395    -0.87900
H173        H  0.91426758  0.97685881  0.56841514    -0.06200
H174        H  0.93647880  0.91878975  0.37694658    -0.06400
C175        C  0.93175230  0.99587866  0.54063877     0.87200
C176        C  0.99502389  0.06178890  0.40734773     0.87800
C177        C  0.93459681  0.93544594  0.40544405     0.87800
H178        H  0.01673439  0.93702249  0.56658491    -0.06400
O179        O  0.07076344  0.03493532  0.54507361    -0.75400
Mg180      Mg  0.90521351  0.91493152  0.50011920     1.58000
H181        H  0.05995922  0.08084138  0.56712758    -0.06400
C182        C  0.91668272  0.08920807  0.50054893     0.92800
O183        O  0.84346832  0.95772222  0.44718810    -0.82600
C184        C  0.82509167  0.91806128  0.45082466     0.92800
O185        O  0.10809214  0.15095494  0.44633576    -0.82600
Mg186      Mg  0.08118252  0.99098895  0.49961757     1.58200
O187        O  0.89650579  0.05168763  0.48599701    -0.80900
O188        O  0.03857645  0.88731733  0.44666855    -0.82600
C189        C  0.25980537  0.51020488  0.46819203    -0.03100
C190        C  0.26902476  0.48765250  0.49858710    -0.05700
C191        C  0.24923820  0.44397185  0.49607288    -0.20800
C192        C  0.21933172  0.42175367  0.46359220     0.25000
C193        C  0.20968696  0.44434617  0.43345519    -0.18300
C194        C  0.22969820  0.48802744  0.43580036    -0.08300
C195        C  0.20037476  0.37541178  0.46135243    -0.18600
C196        C  0.16389763  0.34949653  0.44116039    -0.23400
C197        C  0.14498257  0.30317525  0.44117034     0.27000
C198        C  0.10108527  0.27787359  0.43950550    -0.20100
C199        C  0.08211635  0.23427808  0.44196741    -0.09800
C200        C  0.10673473  0.21495118  0.44517401    -0.10300
C201        C  0.15076828  0.24019235  0.44469795    -0.03200
C202        C  0.16971009  0.28382430  0.44281887    -0.18400
H203        H  0.29237590  0.50390368  0.52355858     0.10700
H204        H  0.25750475  0.42744547  0.51953036     0.10800
H205        H  0.18757428  0.42870006  0.40733810     0.10500
H206        H  0.22165858  0.50452106  0.41212783     0.11600
H207        H  0.21628939  0.36199737  0.47906964     0.11700
H208        H  0.14558924  0.36206106  0.42690032     0.13600
H209        H  0.08133533  0.29194177  0.43763032     0.10100
H210        H  0.04811650  0.21571752  0.44198844     0.12200
H211        H  0.17062630  0.22629181  0.44706808     0.08800
H212        H  0.20368311  0.30226312  0.44268865     0.11500
C213        C  0.77898170  0.89287100  0.44390257    -0.03100
C214        C  0.75739044  0.84954073  0.45173599    -0.05700
C215        C  0.71345369  0.82671282  0.45170296    -0.20800
C216        C  0.68988924  0.84641724  0.44359556     0.25000
C217        C  0.71149076  0.88946599  0.43373829    -0.18300
C218        C  0.75551862  0.91234183  0.43378925    -0.08300
C219        C  0.64330814  0.82156424  0.44930501    -0.18600
C220        C  0.61630525  0.83378657  0.43564253    -0.23400
C221        C  0.57016355  0.80893999  0.44400396     0.27000
C222        C  0.54279800  0.81223803  0.41476385    -0.20100
C223        C  0.49923657  0.78873403  0.42111805    -0.09800
C224        C  0.48197907  0.76168278  0.45722718    -0.10300
C225        C  0.50943971  0.75971760  0.48753971    -0.03200
C226        C  0.55304299  0.78305964  0.48103203    -0.18400
H227        H  0.77435614  0.83343381  0.45960729     0.10700
H228        H  0.69777636  0.79364798  0.45934215     0.10800
H229        H  0.69482969  0.90620495  0.42791945     0.10500
H230        H  0.77110428  0.94567552  0.42767151     0.11600
H231        H  0.63072564  0.79144374  0.46536717     0.11700
H232        H  0.62772789  0.86187506  0.41610179     0.13600
H233        H  0.55514559  0.83249268  0.38643450     0.10100
H234        H  0.47902380  0.79162190  0.39760310     0.12200
H235        H  0.49720456  0.73920365  0.51562974     0.08800
H236        H  0.57319108  0.78086851  0.50516598     0.11500
C237        C  0.26937230  0.75678699  0.47097156    -0.03100
C238        C  0.28271584  0.78682158  0.43750543    -0.05700
C239        C  0.26408339  0.81162459  0.43273952    -0.20800
C240        C  0.23118066  0.80637731  0.46075956     0.25000
C241        C  0.21911695  0.77764220  0.49555277    -0.18300
C242        C  0.23820327  0.75319963  0.50066735    -0.08300
C243        C  0.21031791  0.83143592  0.45287118    -0.18600
C244        C  0.16946375  0.81723658  0.46258949    -0.23400
C245        C  0.14726909  0.84117834  0.45496492     0.27000
C246        C  0.10312837  0.81949042  0.45618851    -0.20100
C247        C  0.08073432  0.84083575  0.45268132    -0.09800
C248        C  0.10197937  0.88461505  0.44841775    -0.10300
C249        C  0.14615614  0.90633869  0.44610794    -0.03200
C250        C  0.16860170  0.88490889  0.44923332    -0.18400
H251        H  0.30705056  0.79050726  0.41449683     0.10700
H252        H  0.27443444  0.83399513  0.40615931     0.10800
H253        H  0.19481323  0.77379419  0.51867003     0.10500
H254        H  0.22736663  0.73018121  0.52661367     0.11600
H255        H  0.22854746  0.86102996  0.43600611     0.11700
H256        H  0.15076309  0.78584406  0.47570648     0.13600
H257        H  0.08583475  0.78589537  0.46079979     0.10100
H258        H  0.04675060  0.82314753  0.45521103     0.12200
H259        H  0.16345580  0.94009761  0.44316969     0.08800
H260        H  0.20254911  0.90305628  0.44895589     0.11500
C261        C  0.10639446  0.21385442  0.98067960    -0.03100
C262        C  0.08636900  0.23410333  0.96233440    -0.05700
C263        C  0.10903362  0.27682414  0.95284763    -0.20800
C264        C  0.15216332  0.30050568  0.96172510     0.25000
C265        C  0.17262590  0.27994172  0.97853268    -0.18300
C266        C  0.14992653  0.23713148  0.98801277    -0.08300
C267        C  0.17410229  0.34643519  0.95354259    -0.18600
C268        C  0.21043934  0.37405061  0.97282144    -0.23400
C269        C  0.22990773  0.42031053  0.96904814     0.27000
C270        C  0.25863245  0.44538619  0.00119176    -0.20100
C271        C  0.27654393  0.48882418  0.00048328    -0.09800
C272        C  0.26645431  0.50846225  0.96733745    -0.10300
C273        C  0.23874538  0.48359087  0.93423970    -0.03200
C274        C  0.22066008  0.43995953  0.93499841    -0.18400
H275        H  0.05294002  0.21710783  0.95595428     0.10700
H276        H  0.09251284  0.29165037  0.93947982     0.10800
H277        H  0.20606998  0.29654326  0.98445156     0.10500
H278        H  0.16641122  0.22243378  0.00175137     0.11600
H279        H  0.15767731  0.35792555  0.93376818     0.11700
H280        H  0.22507764  0.36274202  0.99540116     0.13600
H281        H  0.26680222  0.43125648  0.02746930     0.10100
H282        H  0.29851757  0.50708366  0.02588563     0.12200
H283        H  0.23043801  0.49780219  0.90822202     0.08800
H284        H  0.19971217  0.42200701  0.90879215     0.11500
C285        C  0.78231334  0.89379510  0.00149329    -0.03100
C286        C  0.76354205  0.91901110  0.00420283    -0.05700
C287        C  0.72010881  0.90155468  0.99982661    -0.20800
C288        C  0.69428211  0.85857274  0.99217375     0.25000
C289        C  0.71298233  0.83327791  0.98876600    -0.18300
C290        C  0.75654721  0.85075399  0.99328545    -0.08300
C291        C  0.64794075  0.84109455  0.99050562    -0.18600
C292        C  0.62163426  0.80551636  0.96918869    -0.23400
C293        C  0.57519699  0.78764051  0.96826862     0.27000
C294        C  0.55247383  0.76090848  0.93362621    -0.20100
C295        C  0.50859811  0.74157083  0.93268359    -0.09800
C296        C  0.48628059  0.74799939  0.96678582    -0.10300
C297        C  0.50899694  0.77503815  0.00136550    -0.03200
C298        C  0.55295598  0.79469807  0.00212384    -0.18400
H299        H  0.78232528  0.95227678  0.01049306     0.10700
H300        H  0.70656702  0.92172339  0.00278305     0.10800
H301        H  0.69401703  0.79982791  0.98406616     0.10500
H302        H  0.76987619  0.83035829  0.99147033     0.11600
H303        H  0.63542734  0.85926279  0.00602289     0.11700
H304        H  0.63458848  0.78948460  0.95016550     0.13600
H305        H  0.56873598  0.75461522  0.90735646     0.10100
H306        H  0.49201077  0.72038271  0.90600666     0.12200
H307        H  0.49271693  0.78067570  0.02807102     0.08800
H308        H  0.56917099  0.81425226  0.02995816     0.11500
C309        C  0.26088357  0.74660740  0.98139814    -0.03100
C310        C  0.27131232  0.77564246  0.01577940    -0.05700
C311        C  0.25249782  0.80051785  0.01917715    -0.20800
C312        C  0.22229362  0.79647870  0.98881335     0.25000
C313        C  0.21179384  0.76743888  0.95432964    -0.18300
C314        C  0.23100744  0.74287216  0.95063464    -0.08300
C315        C  0.20374492  0.82419275  0.99322179    -0.18600
C316        C  0.16502287  0.81359786  0.97912797    -0.23400
C317        C  0.14635592  0.84106864  0.98520312     0.27000
C318        C  0.10261851  0.82275060  0.99021464    -0.20100
C319        C  0.08406833  0.84761517  0.99683461    -0.09800
C320        C  0.10882900  0.89150319  0.99773171    -0.10300
C321        C  0.15255649  0.90988792  0.99140744    -0.03200
C322        C  0.17114201  0.88497670  0.98531708    -0.18400
H323        H  0.29455402  0.77962509  0.03968283     0.10700
H324        H  0.26142358  0.82289188  0.04580375     0.10800
H325        H  0.18938403  0.76415623  0.92971589     0.10500
H326        H  0.22217418  0.72057843  0.92398308     0.11600
H327        H  0.22177938  0.85334764  0.01105657     0.11700
H328        H  0.14517683  0.78269658  0.96529555     0.13600
H329        H  0.08279410  0.78902607  0.98982836     0.10100
H330        H  0.05029801  0.83241337  0.00140591     0.12200
H331        H  0.17255715  0.94357724  0.99177767     0.08800
H332        H  0.20483475  0.90018640  0.98028068     0.11500
C333        C  0.33346439  0.66348040  0.56377210    -0.03100
C334        C  0.36532867  0.65853554  0.58309708    -0.05700
C335        C  0.36868902  0.65817519  0.62872403    -0.20800
C336        C  0.33934950  0.66108928  0.65638759     0.25000
C337        C  0.30611522  0.66376824  0.63715408    -0.18300
C338        C  0.30283784  0.66414144  0.59155511    -0.08300
C339        C  0.34518749  0.66228680  0.70481007    -0.18600
C340        C  0.31404286  0.65290714  0.73440476    -0.23400
C341        C  0.31943962  0.65516835  0.78293883     0.27000
C342        C  0.28693322  0.65314091  0.80947291    -0.20100
C343        C  0.29027389  0.65536503  0.85509781    -0.09800
C344        C  0.32695799  0.66130413  0.87568392    -0.10300
C345        C  0.35787573  0.65964810  0.84925243    -0.03200
C346        C  0.35467336  0.65748114  0.80349068    -0.18400
H347        H  0.38802318  0.65532888  0.56284399     0.10700
H348        H  0.39426299  0.65541842  0.64247434     0.10800
H349        H  0.28274593  0.66619843  0.65690294     0.10500
H350        H  0.27569881  0.66417710  0.57840714     0.11600
H351        H  0.37646827  0.67119040  0.71596899     0.11700
H352        H  0.28272136  0.64342708  0.72288160     0.13600
H353        H  0.25857168  0.64955398  0.79485306     0.10100
H354        H  0.26360849  0.65170986  0.87416681     0.12200
H355        H  0.38415413  0.65887577  0.86378673     0.08800
H356        H  0.37934136  0.65643845  0.78477701     0.11500
C357        C  0.33208705  0.65686942  0.06510551    -0.03100
C358        C  0.36351540  0.65206868  0.08568555    -0.05700
C359        C  0.36352655  0.64810073  0.13115235    -0.20800
C360        C  0.33115204  0.64695136  0.15711432     0.25000
C361        C  0.29729450  0.64713331  0.13624696    -0.18300
C362        C  0.29750140  0.65129473  0.09077812    -0.08100
C363        C  0.33333821  0.64415201  0.20545649    -0.18600
C364        C  0.31162386  0.65448436  0.23395704    -0.23400
C365        C  0.31529506  0.65376949  0.28228227     0.27000
C366        C  0.28240190  0.65107319  0.30852620    -0.20100
C367        C  0.28551549  0.65295819  0.35409331    -0.09800
C368        C  0.32247709  0.65952915  0.37460161    -0.10300
C369        C  0.35386753  0.65866959  0.34839400    -0.03200
C370        C  0.35093549  0.65698045  0.30273950    -0.18400
H371        H  0.38796859  0.65083759  0.06671959     0.10700
H372        H  0.38899008  0.64593060  0.14609416     0.10800
H373        H  0.27004629  0.64303750  0.15451254     0.10500
H374        H  0.26996071  0.64910869  0.07581562     0.11600
H375        H  0.35463198  0.63428604  0.21770113     0.11700
H376        H  0.29022074  0.66425698  0.22183350     0.13600
H377        H  0.25407229  0.64738061  0.29370068     0.10100
H378        H  0.25879339  0.64922347  0.37314265     0.12200
H379        H  0.38091732  0.65948568  0.36305270     0.08800
H380        H  0.37704946  0.65902209  0.28388962     0.11500
C381        C  0.89424541  0.11232124  0.51172348    -0.03100
C382        C  0.91762862  0.15538135  0.52115086    -0.05700
C383        C  0.89766098  0.17866109  0.52842069    -0.20800
C384        C  0.85377745  0.15962350  0.52705316     0.25000
C385        C  0.82999837  0.11628785  0.51880024    -0.18300
C386        C  0.85011702  0.09287443  0.51109624    -0.08300
C387        C  0.83482209  0.18696937  0.53049531    -0.18600
C388        C  0.79456485  0.17371226  0.54188783    -0.23400
C389        C  0.77678857  0.20218432  0.54166654     0.27000
C390        C  0.74423574  0.19532344  0.57107390    -0.20100
C391        C  0.72621785  0.22103300  0.57042499    -0.09800
C392        C  0.73990091  0.25362091  0.53972676    -0.10300
C393        C  0.77235788  0.26034443  0.51022365    -0.03200
C394        C  0.79062478  0.23497648  0.51115481    -0.18400
H395        H  0.95165926  0.17156996  0.52176292     0.10700
H396        H  0.91673365  0.21197345  0.53441418     0.10800
H397        H  0.79611151  0.10069725  0.51656315     0.10500
H398        H  0.83121930  0.05981982  0.50378708     0.11600
H399        H  0.85554198  0.22003855  0.52395588     0.11700
H400        H  0.77441756  0.14172273  0.55274132     0.13600
H401        H  0.73274034  0.17002372  0.59456797     0.10100
H402        H  0.70082880  0.21472836  0.59313809     0.12200
H403        H  0.78359482  0.28527287  0.48635150     0.08800
H404        H  0.81483216  0.24047616  0.48715805     0.11500
C405        C  0.73670453  0.48664904  0.53204776    -0.03100
C406        C  0.72448813  0.50780416  0.56207746    -0.05700
C407        C  0.74372255  0.55145635  0.56132141    -0.20800
C408        C  0.77599370  0.57505649  0.53099412     0.25000
C409        C  0.78835630  0.55381875  0.50099437    -0.18300
C410        C  0.76890573  0.51012962  0.50158340    -0.08300
C411        C  0.79441937  0.62136717  0.53043892    -0.18600
C412        C  0.83229100  0.64800075  0.51264544    -0.23400
C413        C  0.85056961  0.69426987  0.51099677     0.27000
C414        C  0.89392443  0.71935438  0.50316596    -0.20100
C415        C  0.91236271  0.76271826  0.49901245    -0.09800
C416        C  0.88782949  0.78222734  0.50233216    -0.10300
C417        C  0.84444579  0.75724447  0.51064682    -0.03200
C418        C  0.82595078  0.71374903  0.51476842    -0.18400
H419        H  0.69933053  0.49048542  0.58545865     0.10700
H420        H  0.73321024  0.56686896  0.58447625     0.10800
H421        H  0.81222848  0.57053444  0.47624726     0.10500
H422        H  0.77905044  0.49466124  0.47817011     0.11600
H423        H  0.77648948  0.63378171  0.54675406     0.11700
H424        H  0.85175020  0.63575340  0.49980259     0.13600
H425        H  0.91364255  0.70528623  0.49982004     0.10100
H426        H  0.94584744  0.78087786  0.49243221     0.12200
H427        H  0.82454037  0.77116365  0.51283170     0.08800
H428        H  0.79226737  0.69562439  0.51953258     0.11500
C429        C  0.51014981  0.24164722  0.52270786    -0.03100
C430        C  0.48841765  0.21142447  0.55518865    -0.05700
C431        C  0.44458758  0.18794388  0.55520477    -0.20800
C432        C  0.42148091  0.19447309  0.52310891     0.25000
C433        C  0.44324748  0.22395012  0.48980382    -0.18300
C434        C  0.48719292  0.24726119  0.48963255    -0.08300
C435        C  0.37493099  0.16882444  0.52465705    -0.18600
C436        C  0.34931549  0.18066360  0.50638944    -0.23400
C437        C  0.30274819  0.15425622  0.50671239     0.27000
C438        C  0.27849105  0.17328590  0.49919204    -0.20100
C439        C  0.23475227  0.14924113  0.49641181    -0.09800
C440        C  0.21426812  0.10547270  0.50085283    -0.10300
C441        C  0.23846987  0.08646789  0.50912500    -0.03200
C442        C  0.28220918  0.11050433  0.51179954    -0.18400
H443        H  0.50538509  0.20595633  0.58061956     0.10700
H444        H  0.42863123  0.16495250  0.58075718     0.10800
H445        H  0.42660993  0.22886422  0.46362683     0.10500
H446        H  0.50320938  0.27038662  0.46425668     0.11600
H447        H  0.36152701  0.13997470  0.54325183     0.11700
H448        H  0.36272538  0.21138505  0.49151438     0.13600
H449        H  0.29348380  0.20685386  0.49487377     0.10100
H450        H  0.21709441  0.16491800  0.48982180     0.12200
H451        H  0.22375418  0.05280762  0.51214871     0.08800
H452        H  0.29968012  0.09435046  0.51624488     0.11500
C453        C  0.76621685  0.27980150  0.04009457    -0.03100
C454        C  0.79413816  0.28483391  0.00551130    -0.05700
C455        C  0.81944462  0.26633343  0.00743557    -0.20800
C456        C  0.81721159  0.24206111  0.04368716     0.25000
C457        C  0.79075549  0.23862279  0.07913357    -0.18300
C458        C  0.76550588  0.25708174  0.07724521    -0.08300
C459        C  0.84246262  0.22049251  0.04325440    -0.18600
C460        C  0.83106474  0.18500647  0.06583558    -0.23400
C461        C  0.85360850  0.16078506  0.06300075     0.27000
C462        C  0.83154893  0.11808104  0.07376560    -0.20100
C463        C  0.85083554  0.09361248  0.07021222    -0.09800
C464        C  0.89291959  0.11138259  0.05613836    -0.10300
C465        C  0.91550608  0.15451734  0.04684373    -0.03200
C466        C  0.89614426  0.17896814  0.05028154    -0.18400
H467        H  0.79631824  0.30281244  0.97679448     0.10700
H468        H  0.84007499  0.27012421  0.97997131     0.10800
H469        H  0.78923395  0.22154441  0.10838191     0.10500
H470        H  0.74445505  0.25239627  0.10450356     0.11600
H471        H  0.86922411  0.23242892  0.02093713     0.11700
H472        H  0.80203451  0.17108770  0.08484818     0.13600
H473        H  0.79888426  0.10331879  0.08407891     0.10100
H474        H  0.83246848  0.06057147  0.07769036     0.12200
H475        H  0.94808200  0.16936963  0.03624497     0.08800
H476        H  0.91467223  0.21200959  0.04308377     0.11500
C477        C  0.75545561  0.49082143  0.03029599    -0.03100
C478        C  0.75515961  0.51414018  0.99426446    -0.05700
C479        C  0.77611169  0.55784083  0.99604107    -0.20800
C480        C  0.79780587  0.57945806  0.03382793     0.25000
C481        C  0.79937749  0.55615061  0.06936309    -0.18300
C482        C  0.77853829  0.51245483  0.06750083    -0.08300
C483        C  0.81708113  0.62590938  0.03467768    -0.18600
C484        C  0.83776907  0.65069967  0.06896464    -0.23400
C485        C  0.85642066  0.69681918  0.06764480     0.27000
C486        C  0.89415844  0.72210914  0.08968186    -0.20100
C487        C  0.91390661  0.76569028  0.08690971    -0.09800
C488        C  0.89572001  0.78488563  0.06288189    -0.10300
C489        C  0.85671903  0.75954357  0.04280390    -0.03200
C490        C  0.83732122  0.71592118  0.04499026    -0.18400
H491        H  0.73752480  0.49865843  0.96518458     0.10700
H492        H  0.77449408  0.57480780  0.96802219     0.10800
H493        H  0.81604357  0.57097958  0.09901323     0.10500
H494        H  0.78035518  0.49564486  0.09548018     0.11600
H495        H  0.81416031  0.64050699  0.00517360     0.11700
H496        H  0.84346734  0.63781066  0.09809182     0.13600
H497        H  0.90914429  0.70807723  0.10783143     0.10100
H498        H  0.94385032  0.78436006  0.10288387     0.12200
H499        H  0.84191153  0.77337840  0.02404189     0.08800
H500        H  0.80751497  0.69723900  0.02881584     0.11500
C501        C  0.21847473  0.11104535  0.05032579    -0.03100
C502        C  0.23808898  0.08678778  0.05405788    -0.05700
C503        C  0.28189037  0.10583526  0.05517332    -0.20800
C504        C  0.30707024  0.14940990  0.05171493     0.25000
C505        C  0.28756445  0.17389729  0.04947542    -0.18300
C506        C  0.24367897  0.15488067  0.04895872    -0.08300
C507        C  0.35347345  0.16822170  0.05128785    -0.18600
C508        C  0.37953475  0.20363626  0.02946508    -0.23400
C509        C  0.42598222  0.22203369  0.02841349     0.27000
C510        C  0.44932313  0.24782062  0.99319746    -0.20100
C511        C  0.49324190  0.26683186  0.99206500    -0.09800
C512        C  0.51474745  0.26090598  0.02653982    -0.10300
C513        C  0.49130957  0.23484130  0.06158583    -0.03200
C514        C  0.44751354  0.21573760  0.06263126    -0.18400
H515        H  0.21960072  0.05297484  0.05541048     0.10700
H516        H  0.29619964  0.08636777  0.05753416     0.10800
H517        H  0.30609766  0.20768408  0.04817399     0.10500
H518        H  0.22954820  0.17446638  0.04619427     0.11600
H519        H  0.36615550  0.15066629  0.06702249     0.11700
H520        H  0.36634965  0.21875280  0.01000780     0.13600
H521        H  0.43352705  0.25342578  0.96658002     0.10100
H522        H  0.51041684  0.28709761  0.96487759     0.12200
H523        H  0.50689056  0.22934024  0.08844022     0.08800
H524        H  0.43084525  0.19700316  0.09089000     0.11500
C525        C  0.67094191  0.33405015  0.93553825    -0.03100
C526        C  0.67117836  0.30080540  0.91276152    -0.05700
C527        C  0.67003273  0.29900118  0.86699358    -0.20800
C528        C  0.66649312  0.32915442  0.84265208     0.25000
C529        C  0.66317518  0.36080888  0.86526895    -0.18300
C530        C  0.66462911  0.36272016  0.91115408    -0.08300
C531        C  0.66811613  0.32726255  0.79395962    -0.18600
C532        C  0.65193969  0.34413734  0.76678179    -0.23400
C533        C  0.65502630  0.34191740  0.71823877     0.27000
C534        C  0.62373722  0.34141378  0.69192834    -0.20100
C535        C  0.62575156  0.33862537  0.64622430    -0.09800
C536        C  0.65852202  0.33509341  0.62571017    -0.10300
C537        C  0.69189236  0.33999737  0.65207423    -0.03200
C538        C  0.68978303  0.34240737  0.69769946    -0.18400
H539        H  0.67146602  0.27555178  0.93011217     0.10700
H540        H  0.67148035  0.27359372  0.85050726     0.10800
H541        H  0.66020389  0.38457055  0.84776416     0.10500
H542        H  0.66074566  0.38673587  0.92751312     0.11600
H543        H  0.68211976  0.30980035  0.77993901     0.11700
H544        H  0.63419219  0.35808989  0.78016036     0.13600
H545        H  0.59758824  0.34303069  0.70676976     0.10100
H546        H  0.60181536  0.33977869  0.62701874     0.12200
H547        H  0.72032457  0.34307853  0.63761924     0.08800
H548        H  0.71600639  0.34584609  0.71673763     0.11500
C549        C  0.66230790  0.33664607  0.12530027    -0.03100
C550        C  0.65425353  0.36613123  0.14632758    -0.05700
C551        C  0.64948379  0.36598381  0.19190802    -0.20800
C552        C  0.65118206  0.33551858  0.21762179     0.25000
C553        C  0.65470554  0.30338497  0.19627812    -0.18300
C554        C  0.65958230  0.30368248  0.15071339    -0.08300
C555        C  0.64834823  0.33791123  0.26624981    -0.18600
C556        C  0.66266939  0.31973024  0.29406351    -0.23400
C557        C  0.66193348  0.32327538  0.34268522     0.27000
C558        C  0.66303236  0.29235535  0.36807682    -0.20100
C559        C  0.66387890  0.29497027  0.41381119    -0.09800
C560        C  0.66654710  0.33003358  0.43561082    -0.10300
C561        C  0.66230435  0.35940174  0.41011791    -0.03200
C562        C  0.66094716  0.35664750  0.36428312    -0.18400
H563        H  0.65151681  0.38940014  0.12757952     0.10700
H564        H  0.64483315  0.39004188  0.20717335     0.10800
H565        H  0.65294039  0.27745585  0.21437026     0.10500
H566        H  0.66041606  0.27753772  0.13548207     0.11600
H567        H  0.63527963  0.35655815  0.27928610     0.11700
H568        H  0.67582615  0.30118348  0.28098373     0.13600
H569        H  0.66236222  0.26552336  0.35245556     0.10100
H570        H  0.66143478  0.26882034  0.43194168     0.12200
H571        H  0.65897187  0.38412992  0.42537459     0.08800
H572        H  0.65953569  0.38095565  0.34612562     0.11500
loop_ 
_geom_bond_atom_site_label_1 
_geom_bond_atom_site_label_2 
_geom_bond_distance 
_geom_bond_site_symmetry_2 
_ccdc_geom_bond_type 
C1            C3   1.543       .  S
C1            C5   1.540       .  S
C1            C4   1.527       .  S
C1          C549   1.528       .  S
C2            C6   1.550   1_556  S
C2            C8   1.545   1_556  S
C2            C7   1.535   1_556  S
C2          C525   1.529       .  S
C3           C11   1.379       .  A
C3            C6   1.398       .  A
C4           C15   1.372       .  A
C4            C7   1.386       .  A
C5           C19   1.376       .  A
C5            C8   1.395       .  A
C6            C9   1.384   1_554  A
C7           C13   1.380   1_554  A
C8           C16   1.381   1_554  A
C9           N10   1.361   1_556  A
C9           H22   1.080       .  S
N10          C11   1.359       .  A
N10         C453   1.448       .  S
C11          H12   1.081       .  S
C13          N14   1.362   1_556  A
C13          H23   1.082       .  S
N14          C15   1.360       .  A
N14         C512   1.442       .  S
C15          H21   1.082       .  S
C16          N17   1.361   1_556  A
C16          H18   1.081       .  S
N17          C19   1.359       .  A
N17         C477   1.445       .  S
C19          H20   1.081       .  S
C24          C26   1.548       .  S
C24          C28   1.536       .  S
C24          C27   1.544       .  S
C24         C560   1.532       .  S
C25          C29   1.544       .  S
C25          C31   1.536       .  S
C25          C30   1.534       .  S
C25         C536   1.530       .  S
C26          C34   1.381       .  A
C26          C29   1.398       .  A
C27          C38   1.381       .  A
C27          C30   1.394       .  A
C28          C42   1.378       .  A
C28          C31   1.392       .  A
C29          C32   1.381       .  A
C30          C36   1.376       .  A
C31          C39   1.376       .  A
C32          N33   1.357       .  A
C32          H45   1.081       .  S
N33          C34   1.359       .  A
N33         C392   1.441       .  S
C34          H35   1.081       .  S
C36          N37   1.359       .  A
C36          H46   1.082       .  S
N37          C38   1.360       .  A
N37         C405   1.442       .  S
C38          H44   1.081       .  S
C39          N40   1.358       .  A
C39          H41   1.081       .  S
N40          C42   1.359       .  A
N40         C429   1.438       .  S
C42          H43   1.082       .  S
C47          C49   1.541   1_554  S
C47          C51   1.529   1_554  S
C47          C50   1.542   1_554  S
C47         C357   1.524       .  S
C48          C52   1.548       .  S
C48          C54   1.535       .  S
C48          C53   1.550       .  S
C48         C344   1.529       .  S
C49          C57   1.380   1_556  A
C49          C52   1.396       .  A
C50          C61   1.379   1_556  A
C50          C53   1.396       .  A
C51          C65   1.373   1_556  A
C51          C54   1.386       .  A
C52          C55   1.383       .  A
C53          C59   1.383       .  A
C54          C62   1.380       .  A
C55          N56   1.359       .  A
C55          H68   1.082       .  S
N56          C57   1.358   1_556  A
N56         C309   1.443       .  S
C57          H58   1.081       .  S
C59          N60   1.360       .  A
C59          H69   1.081       .  S
N60          C61   1.358   1_556  A
N60         C296   1.444       .  S
C61          H67   1.081       .  S
C62          N63   1.362       .  A
C62          H64   1.082       .  S
N63          C65   1.360   1_556  A
N63         C272   1.443       .  S
C65          H66   1.082       .  S
C70          C72   1.536       .  S
C70          C74   1.539       .  S
C70          C73   1.523       .  S
C70         C368   1.524       .  S
C71          C75   1.554       .  S
C71          C77   1.547       .  S
C71          C76   1.540       .  S
C71         C333   1.529       .  S
C72          C80   1.375       .  A
C72          C75   1.405       .  A
C73          C84   1.372       .  A
C73          C76   1.386       .  A
C74          C88   1.376       .  A
C74          C77   1.394       .  A
C75          C78   1.391       .  A
C76          C82   1.383       .  A
C77          C85   1.383       .  A
C78          N79   1.357       .  A
C78          H91   1.081       .  S
N79          C80   1.350       .  A
N79         C237   1.439       .  S
C80          H81   1.082       .  S
C82          N83   1.364       .  A
C82          H92   1.082       .  S
N83          C84   1.358       .  A
N83         C189   1.443       .  S
C84          H90   1.082       .  S
C85          N86   1.362       .  A
C85          H87   1.082       .  S
N86          C88   1.358       .  A
N86         C224   1.444       .  S
C88          H89   1.081       .  S
O93         Mg95   2.145       .  S
O93        Mg101   2.151   1_564  S
O93         C128   1.236   1_565  S
C94         H133   1.081       .  S
C94         O107   1.236       .  S
C94         O131   1.270       .  A
Mg95        O124   2.160   1_455  S
Mg95        O139   2.314       .  S
Mg95        O135   2.254   1_455  S
Mg95        O106   2.297   1_455  S
O96        Mg138   2.158   1_454  S
O96        Mg121   2.145       .  S
O96         C117   1.237       .  S
O97         C128   1.271       .  A
O97        Mg121   2.304       .  S
C98         O100   1.276       .  A
C98         O112   1.276       .  A
C98         C285   1.487       .  S
O99         C127   1.271   1_455  A
O99        Mg101   2.302   1_565  S
O100       Mg132   2.290       .  S
Mg101       O107   2.142       .  S
Mg101       O115   2.271   1_546  S
Mg101       O103   2.305   1_556  S
C102        O140   1.275       .  A
C102        O108   1.275       .  A
C102        C464   1.488       .  S
O103        C110   1.276       .  A
H104        C117   1.081       .  S
C105        H130   1.081   1_565  S
C105        O119   1.235   1_565  S
C105        O120   1.268       .  A
O106        C129   1.270       .  A
O107       Mg121   2.154   1_556  S
O108       Mg138   2.303   1_554  S
C109        O122   1.272       .  A
C109        O114   1.276   1_556  A
C109        C261   1.484       .  S
C110        O137   1.273       .  A
C110        C501   1.482       .  S
Mg111       O118   2.150       .  S
Mg111       O119   2.148   1_564  S
Mg111       O112   2.299       .  S
Mg111       O113   2.297   1_565  S
Mg111       O140   2.284   1_565  S
O113        C117   1.271   1_655  A
O114       Mg121   2.310       .  S
O115        C134   1.273       .  A
O116        C136   1.277       .  A
O116       Mg132   2.314       .  S
O118       Mg132   2.165       .  S
O118        C129   1.236       .  S
O119       Mg138   2.134       .  S
O120       Mg132   2.292   1_556  S
Mg121       O137   2.267       .  S
O122       Mg138   2.256   1_455  S
H123        C128   1.081   1_565  S
O124       Mg132   2.157       .  S
O124        C127   1.236   1_554  S
H125        C127   1.081       .  S
H126        C129   1.081       .  S
O131       Mg138   2.296   1_455  S
C134        O139   1.276       .  A
C134        C320   1.486   1_554  S
O135        C136   1.272       .  A
C136        C488   1.481       .  S
O141       Mg143   2.146       .  S
O141       Mg149   2.151   1_655  S
O141        C176   1.236       .  S
C142        H181   1.081       .  S
C142        O155   1.235       .  S
C142        O179   1.268       .  A
Mg143       O172   2.155   1_545  S
Mg143       O187   2.339       .  S
Mg143       O183   2.271   1_545  S
Mg143       O154   2.308   1_545  S
O144       Mg186   2.159   1_545  S
O144       Mg169   2.149       .  S
O144        C165   1.235       .  S
O145        C176   1.270   1_455  A
O145       Mg169   2.298       .  S
C146        O148   1.273       .  A
C146        O160   1.274       .  A
C146        C416   1.486       .  S
O147        C175   1.270   1_545  A
O147       Mg149   2.296   1_655  S
O148       Mg180   2.281       .  S
Mg149       O155   2.132       .  S
Mg149       O163   2.236   1_455  S
Mg149       O151   2.303       .  S
C150        O188   1.272       .  A
C150        O156   1.276       .  A
C150        C248   1.485       .  S
O151        C158   1.275       .  A
H152        C165   1.081       .  S
C153        H178   1.081   1_655  S
C153        O167   1.236   1_655  S
C153        O168   1.271       .  A
O154        C177   1.272       .  A
O155       Mg169   2.147       .  S
O156       Mg186   2.316       .  S
C157        O170   1.274       .  A
C157        O162   1.275       .  A
C157        C440   1.481       .  S
C158        O185   1.273       .  A
C158        C200   1.484       .  S
Mg159       O166   2.156       .  S
Mg159       O167   2.151   1_655  S
Mg159       O160   2.296       .  S
Mg159       O161   2.300   1_655  S
Mg159       O188   2.266   1_655  S
O161        C165   1.270   1_565  A
O162       Mg169   2.293       .  S
O163        C182   1.270       .  A
O164        C184   1.277       .  A
O164       Mg180   2.311       .  S
O166       Mg180   2.159       .  S
O166        C177   1.237       .  S
O167       Mg186   2.152       .  S
O168       Mg180   2.304       .  S
Mg169       O185   2.277       .  S
O170       Mg186   2.268   1_545  S
H171        C176   1.081       .  S
O172       Mg180   2.146       .  S
O172        C175   1.236       .  S
H173        C175   1.081       .  S
H174        C177   1.081       .  S
O179       Mg186   2.293   1_545  S
C182        O187   1.279       .  A
C182        C381   1.485       .  S
O183        C184   1.274       .  A
C184        C213   1.486       .  S
C189        C190   1.403       .  A
C189        C194   1.407       .  A
C190        C191   1.400       .  A
C190        H203   1.082       .  S
C191        C192   1.406       .  A
C191        H204   1.083       .  S
C192        C193   1.408       .  A
C192        C195   1.491       .  S
C193        C194   1.399       .  A
C193        H205   1.081       .  S
C194        H206   1.082       .  S
C195        C196   1.349       .  D
C195        H207   1.086       .  S
C196        C197   1.489       .  S
C196        H208   1.085       .  S
C197        C198   1.404       .  A
C197        C202   1.408       .  A
C198        C199   1.400       .  A
C198        H209   1.083       .  S
C199        C200   1.407       .  A
C199        H210   1.083       .  S
C200        C201   1.406       .  A
C201        C202   1.400       .  A
C201        H211   1.083       .  S
C202        H212   1.082       .  S
C213        C214   1.406       .  A
C213        C218   1.407       .  A
C214        C215   1.398       .  A
C214        H227   1.083       .  S
C215        C216   1.404       .  A
C215        H228   1.083       .  S
C216        C217   1.409       .  A
C216        C219   1.491       .  S
C217        C218   1.401       .  A
C217        H229   1.080       .  S
C218        H230   1.083       .  S
C219        C220   1.348       .  D
C219        H231   1.086       .  S
C220        C221   1.489       .  S
C220        H232   1.084       .  S
C221        C222   1.403       .  A
C221        C226   1.408       .  A
C222        C223   1.399       .  A
C222        H233   1.083       .  S
C223        C224   1.407       .  A
C223        H234   1.082       .  S
C224        C225   1.405       .  A
C225        C226   1.400       .  A
C225        H235   1.082       .  S
C226        H236   1.082       .  S
C237        C238   1.405       .  A
C237        C242   1.403       .  A
C238        C239   1.398       .  A
C238        H251   1.082       .  S
C239        C240   1.402       .  A
C239        H252   1.083       .  S
C240        C241   1.409       .  A
C240        C243   1.487       .  S
C241        C242   1.401       .  A
C241        H253   1.082       .  S
C242        H254   1.083       .  S
C243        C244   1.348       .  D
C243        H255   1.084       .  S
C244        C245   1.491       .  S
C244        H256   1.086       .  S
C245        C246   1.404       .  A
C245        C250   1.409       .  A
C246        C247   1.398       .  A
C246        H257   1.083       .  S
C247        C248   1.406       .  A
C247        H258   1.083       .  S
C248        C249   1.406       .  A
C249        C250   1.401       .  A
C249        H259   1.083       .  S
C250        H260   1.081       .  S
C261        C262   1.406       .  A
C261        C266   1.406       .  A
C262        C263   1.397       .  A
C262        H275   1.083       .  S
C263        C264   1.403       .  A
C263        H276   1.083       .  S
C264        C265   1.409       .  A
C264        C267   1.490       .  S
C265        C266   1.400       .  A
C265        H277   1.081       .  S
C266        H278   1.083   1_556  S
C267        C268   1.348       .  D
C267        H279   1.084       .  S
C268        C269   1.490       .  S
C268        H280   1.084       .  S
C269        C270   1.403   1_556  A
C269        C274   1.410       .  A
C270        C271   1.396       .  A
C270        H281   1.083       .  S
C271        C272   1.405   1_554  A
C271        H282   1.082       .  S
C272        C273   1.406       .  A
C273        C274   1.402       .  A
C273        H283   1.082       .  S
C274        H284   1.081       .  S
C285        C286   1.407       .  A
C285        C290   1.407   1_554  A
C286        C287   1.397   1_554  A
C286        H299   1.083       .  S
C287        C288   1.402       .  A
C287        H300   1.083   1_556  S
C288        C289   1.409       .  A
C288        C291   1.489       .  S
C289        C290   1.402       .  A
C289        H301   1.082       .  S
C290        H302   1.083       .  S
C291        C292   1.347       .  D
C291        H303   1.086   1_556  S
C292        C293   1.490       .  S
C292        H304   1.085       .  S
C293        C294   1.404       .  A
C293        C298   1.409   1_556  A
C294        C295   1.399       .  A
C294        H305   1.083       .  S
C295        C296   1.405       .  A
C295        H306   1.082       .  S
C296        C297   1.407   1_556  A
C297        C298   1.401       .  A
C297        H307   1.082       .  S
C298        H308   1.082       .  S
C309        C310   1.405   1_556  A
C309        C314   1.406       .  A
C310        C311   1.398       .  A
C310        H323   1.082       .  S
C311        C312   1.403   1_554  A
C311        H324   1.083       .  S
C312        C313   1.408       .  A
C312        C315   1.488       .  S
C313        C314   1.401       .  A
C313        H325   1.082       .  S
C314        H326   1.082       .  S
C315        C316   1.348       .  D
C315        H327   1.086   1_556  S
C316        C317   1.488       .  S
C316        H328   1.086       .  S
C317        C318   1.403       .  A
C317        C322   1.407       .  A
C318        C319   1.400       .  A
C318        H329   1.083       .  S
C319        C320   1.407       .  A
C319        H330   1.083   1_556  S
C320        C321   1.407       .  A
C321        C322   1.400       .  A
C321        H331   1.083       .  S
C322        H332   1.082       .  S
C333        C334   1.407       .  A
C333        C338   1.408       .  A
C334        C335   1.400       .  A
C334        H347   1.082       .  S
C335        C336   1.404       .  A
C335        H348   1.083       .  S
C336        C337   1.408       .  A
C336        C339   1.493       .  S
C337        C338   1.399       .  A
C337        H349   1.080       .  S
C338        H350   1.079       .  S
C339        C340   1.350       .  D
C339        H351   1.083       .  S
C340        C341   1.493       .  S
C340        H352   1.084       .  S
C341        C342   1.403       .  A
C341        C346   1.408       .  A
C342        C343   1.397       .  A
C342        H353   1.083       .  S
C343        C344   1.407       .  A
C343        H354   1.081       .  S
C344        C345   1.408       .  A
C345        C346   1.401       .  A
C345        H355   1.080       .  S
C346        H356   1.080       .  S
C357        C358   1.407       .  A
C357        C362   1.408       .  A
C358        C359   1.396       .  A
C358        H371   1.080       .  S
C359        C360   1.402       .  A
C359        H372   1.083       .  S
C360        C361   1.407       .  A
C360        C363   1.486       .  S
C361        C362   1.397       .  A
C361        H373   1.081       .  S
C362        H374   1.080       .  S
C363        C364   1.347       .  D
C363        H375   1.084       .  S
C364        C365   1.484       .  S
C364        H376   1.084       .  S
C365        C366   1.401       .  A
C365        C370   1.407       .  A
C366        C367   1.395       .  A
C366        H377   1.084       .  S
C367        C368   1.408       .  A
C367        H378   1.081       .  S
C368        C369   1.406       .  A
C369        C370   1.397       .  A
C369        H379   1.081       .  S
C370        H380   1.081       .  S
C381        C382   1.407       .  A
C381        C386   1.407       .  A
C382        C383   1.393       .  A
C382        H395   1.083       .  S
C383        C384   1.400       .  A
C383        H396   1.084       .  S
C384        C385   1.409       .  A
C384        C387   1.485       .  S
C385        C386   1.404       .  A
C385        H397   1.082       .  S
C386        H398   1.083       .  S
C387        C388   1.345       .  D
C387        H399   1.086       .  S
C388        C389   1.487       .  S
C388        H400   1.085       .  S
C389        C390   1.403       .  A
C389        C394   1.408       .  A
C390        C391   1.400       .  A
C390        H401   1.083       .  S
C391        C392   1.407       .  A
C391        H402   1.082       .  S
C392        C393   1.403       .  A
C393        C394   1.397       .  A
C393        H403   1.082       .  S
C394        H404   1.082       .  S
C405        C406   1.405       .  A
C405        C410   1.405       .  A
C406        C407   1.399       .  A
C406        H419   1.082       .  S
C407        C408   1.404       .  A
C407        H420   1.084       .  S
C408        C409   1.409       .  A
C408        C411   1.491       .  S
C409        C410   1.399       .  A
C409        H421   1.081       .  S
C410        H422   1.082       .  S
C411        C412   1.348       .  D
C411        H423   1.085       .  S
C412        C413   1.491       .  S
C412        H424   1.085       .  S
C413        C414   1.403       .  A
C413        C418   1.410       .  A
C414        C415   1.397       .  A
C414        H425   1.083       .  S
C415        C416   1.407       .  A
C415        H426   1.083       .  S
C416        C417   1.406       .  A
C417        C418   1.402       .  A
C417        H427   1.083       .  S
C418        H428   1.081       .  S
C429        C430   1.404       .  A
C429        C434   1.404       .  A
C430        C431   1.395       .  A
C430        H443   1.082       .  S
C431        C432   1.402       .  A
C431        H444   1.083       .  S
C432        C433   1.408       .  A
C432        C435   1.484       .  S
C433        C434   1.399       .  A
C433        H445   1.082       .  S
C434        H446   1.082       .  S
C435        C436   1.346       .  D
C435        H447   1.085       .  S
C436        C437   1.486       .  S
C436        H448   1.086       .  S
C437        C438   1.403       .  A
C437        C442   1.408       .  A
C438        C439   1.397       .  A
C438        H449   1.083       .  S
C439        C440   1.407       .  A
C439        H450   1.083       .  S
C440        C441   1.405       .  A
C441        C442   1.397       .  A
C441        H451   1.083       .  S
C442        H452   1.081       .  S
C453        C454   1.408       .  A
C453        C458   1.408       .  A
C454        C455   1.402       .  A
C454        H467   1.081   1_554  S
C455        C456   1.405       .  A
C455        H468   1.083   1_554  S
C456        C457   1.407       .  A
C456        C459   1.492       .  S
C457        C458   1.398       .  A
C457        H469   1.082       .  S
C458        H470   1.082       .  S
C459        C460   1.351       .  D
C459        H471   1.085       .  S
C460        C461   1.491       .  S
C460        H472   1.085       .  S
C461        C462   1.405       .  A
C461        C466   1.407       .  A
C462        C463   1.400       .  A
C462        H473   1.083       .  S
C463        C464   1.406       .  A
C463        H474   1.083       .  S
C464        C465   1.409       .  A
C465        C466   1.401       .  A
C465        H475   1.083       .  S
C466        H476   1.081       .  S
C477        C478   1.405   1_554  A
C477        C482   1.407       .  A
C478        C479   1.398       .  A
C478        H491   1.082       .  S
C479        C480   1.405   1_556  A
C479        H492   1.083       .  S
C480        C481   1.409       .  A
C480        C483   1.492       .  S
C481        C482   1.398       .  A
C481        H493   1.079       .  S
C482        H494   1.082       .  S
C483        C484   1.349       .  D
C483        H495   1.086       .  S
C484        C485   1.484       .  S
C484        H496   1.082       .  S
C485        C486   1.402       .  A
C485        C490   1.407       .  A
C486        C487   1.398       .  A
C486        H497   1.083       .  S
C487        C488   1.406       .  A
C487        H498   1.083       .  S
C488        C489   1.406       .  A
C489        C490   1.399       .  A
C489        H499   1.083       .  S
C490        H500   1.082       .  S
C501        C502   1.406       .  A
C501        C506   1.407       .  A
C502        C503   1.397       .  A
C502        H515   1.083       .  S
C503        C504   1.402       .  A
C503        H516   1.083       .  S
C504        C505   1.407       .  A
C504        C507   1.484       .  S
C505        C506   1.400       .  A
C505        H517   1.082       .  S
C506        H518   1.083       .  S
C507        C508   1.348       .  D
C507        H519   1.085       .  S
C508        C509   1.487       .  S
C508        H520   1.086       .  S
C509        C510   1.405   1_554  A
C509        C514   1.406       .  A
C510        C511   1.401       .  A
C510        H521   1.083       .  S
C511        C512   1.406   1_556  A
C511        H522   1.082       .  S
C512        C513   1.406       .  A
C513        C514   1.396       .  A
C513        H523   1.082       .  S
C514        H524   1.081       .  S
C525        C526   1.407       .  A
C525        C530   1.410       .  A
C526        C527   1.398       .  A
C526        H539   1.080       .  S
C527        C528   1.402       .  A
C527        H540   1.083       .  S
C528        C529   1.406       .  A
C528        C531   1.488       .  S
C529        C530   1.402       .  A
C529        H541   1.082       .  S
C530        H542   1.081       .  S
C531        C532   1.348       .  D
C531        H543   1.086       .  S
C532        C533   1.488       .  S
C532        H544   1.085       .  S
C533        C534   1.402       .  A
C533        C538   1.405       .  A
C534        C535   1.401       .  A
C534        H545   1.083       .  S
C535        C536   1.410       .  A
C535        H546   1.081       .  S
C536        C537   1.408       .  A
C537        C538   1.398       .  A
C537        H547   1.080       .  S
C538        H548   1.082       .  S
C549        C550   1.408       .  A
C549        C554   1.408       .  A
C550        C551   1.399       .  A
C550        H563   1.082       .  S
C551        C552   1.403       .  A
C551        H564   1.084       .  S
C552        C553   1.407       .  A
C552        C555   1.491       .  S
C553        C554   1.399       .  A
C553        H565   1.082       .  S
C554        H566   1.080       .  S
C555        C556   1.349       .  D
C555        H567   1.086       .  S
C556        C557   1.489       .  S
C556        H568   1.086       .  S
C557        C558   1.401       .  A
C557        C562   1.407       .  A
C558        C559   1.398       .  A
C558        H569   1.084       .  S
C559        C560   1.408       .  A
C559        H570   1.080       .  S
C560        C561   1.410       .  A
C561        C562   1.401       .  A
C561        H571   1.079       .  S
C562        H572   1.081       .  S
