geometry optimzed in LAMMPS
_audit_creation_date              2020-12-01 
_audit_creation_method            'lammps2cif' 
_symmetry_space_group_name_H-M    'P1' 
_symmetry_Int_Tables_number       1 
_symmetry_cell_setting            triclinic 
loop_ 
_symmetry_equiv_pos_as_xyz 
  x,y,z 
_cell_length_a                    36.0889751 
_cell_length_b                    35.841901912325675 
_cell_length_c                    25.84157130444125 
_cell_angle_alpha                 90.03325193329289 
_cell_angle_beta                  90.04547064270794 
_cell_angle_gamma                 119.74936905768537 
loop_ 
_atom_site_label 
_atom_site_type_symbol 
_atom_site_fract_x 
_atom_site_fract_y 
_atom_site_fract_z 
_atom_site_charge 
C1          C  0.33230437  0.16792811  0.04978025     0.30300
C2          C  0.32988512  0.16641690  0.94340925     0.30300
C3          C  0.35482531  0.14569427  0.02220330    -0.05900
C4          C  0.28732080  0.14470021  0.02413002    -0.06700
C5          C  0.35392876  0.21253303  0.02186901    -0.06600
C6          C  0.35218715  0.14417688  0.96817793    -0.05900
C7          C  0.28668606  0.14408415  0.97010818    -0.06700
C8          C  0.35176904  0.21046405  0.96800475    -0.06600
C9          C  0.36995256  0.12045361  0.95017893    -0.32000
N10         N  0.38611945  0.10986935  0.99089555     0.14500
C11         C  0.37740618  0.12496452  0.03506022    -0.32000
H12         H  0.38631830  0.12050601  0.07358199     0.16500
C13         C  0.24502469  0.12156871  0.95387024    -0.31000
N14         N  0.21993149  0.10940309  0.99601658     0.13200
C15         C  0.24492205  0.12274247  0.03929017    -0.31000
C16         C  0.37303099  0.25105813  0.94783600    -0.31200
N17         N  0.38901370  0.27871860  0.98749892     0.13800
H18         H  0.37732913  0.25991585  0.90732239     0.16400
C19         C  0.37839783  0.25624236  0.03284707    -0.31300
H20         H  0.38901739  0.27088051  0.07050504     0.16400
H21         H  0.23311467  0.11732616  0.07862406     0.16400
H22         H  0.37124902  0.11139898  0.91056047     0.16500
H23         H  0.23335051  0.11392191  0.91453774     0.16400
C24         C  0.33176160  0.16764568  0.45018246     0.30300
C25         C  0.32976112  0.16579808  0.55657468     0.30300
C26         C  0.35527805  0.14621548  0.47739444    -0.05900
C27         C  0.35261762  0.21211851  0.47843473    -0.06700
C28         C  0.28685239  0.14358772  0.47599111    -0.06600
C29         C  0.35333289  0.14507090  0.53147594    -0.05900
C30         C  0.35018550  0.20989342  0.53227596    -0.06700
C31         C  0.28657027  0.14212043  0.52997679    -0.06600
C32         C  0.37307297  0.12322993  0.54935510    -0.32000
N33         N  0.38905588  0.11275052  0.50847803     0.14500
C34         C  0.37850445  0.12617063  0.46426512    -0.32000
H35         H  0.38718797  0.12166584  0.42565169     0.16500
C36         C  0.36996102  0.25049222  0.55269700    -0.31000
N37         N  0.38603086  0.27825669  0.51321486     0.13200
C38         C  0.37663294  0.25586298  0.46781991    -0.31000
C39         C  0.24518965  0.11797008  0.54646188    -0.31200
N40         N  0.21967518  0.10683260  0.50468945     0.13800
H41         H  0.23400069  0.10927763  0.58581547     0.16400
C42         C  0.24427055  0.12191034  0.46126500    -0.31300
H43         H  0.23209387  0.11721059  0.42210195     0.16400
H44         H  0.38740432  0.27069675  0.43033142     0.16400
H45         H  0.37530511  0.11474746  0.58894593     0.16500
H46         H  0.37353221  0.25927968  0.59323495     0.16400
C47         C  0.17008253  0.33343952  0.05607592     0.30300
C48         C  0.16532384  0.33078847  0.94964142     0.30300
C49         C  0.14641969  0.35457843  0.03209337    -0.05900
C50         C  0.21204699  0.35424900  0.02773407    -0.06700
C51         C  0.14634285  0.28863712  0.03246574    -0.06600
C52         C  0.14367909  0.35359275  0.97798819    -0.05900
C53         C  0.21067779  0.35377564  0.97398112    -0.06700
C54         C  0.14367923  0.28627167  0.97833327    -0.06600
C55         C  0.12018530  0.37352809  0.96590693    -0.32000
N56         N  0.10950914  0.38606439  0.01072702     0.14500
C57         C  0.12450946  0.37389768  0.05109403    -0.32000
H58         H  0.11876085  0.37818502  0.09113766     0.16500
C59         C  0.25303964  0.37539398  0.95836526    -0.31000
N60         N  0.27833920  0.38767556  0.00147629     0.13200
C61         C  0.25356592  0.37475610  0.04380266    -0.31000
C62         C  0.11833738  0.24260507  0.96759594    -0.31200
N63         N  0.10692120  0.22024229  0.01296585     0.13800
H64         H  0.10751771  0.22780825  0.93007376     0.16400
C65         C  0.12286668  0.24800953  0.05259650    -0.31300
H66         H  0.11710961  0.23894906  0.09295658     0.16400
H67         H  0.26507398  0.38012074  0.08333284     0.16400
H68         H  0.11163681  0.37879655  0.92755497     0.16500
H69         H  0.26458472  0.38126782  0.91891316     0.16400
C70         C  0.16949196  0.33394685  0.44225706     0.30300
C71         C  0.16545478  0.33095458  0.54866674     0.30300
C72         C  0.14434877  0.35340022  0.46673416    -0.05900
C73         C  0.14757675  0.28906394  0.46572064    -0.06700
C74         C  0.21164108  0.35633618  0.47034608    -0.06600
C75         C  0.14256863  0.35270497  0.52089732    -0.05900
C76         C  0.14472759  0.28660243  0.51979910    -0.06700
C77         C  0.21060065  0.35494778  0.52407992    -0.06600
C78         C  0.11861716  0.37187621  0.53394501    -0.32000
N79         N  0.10578963  0.38289307  0.48967371     0.14500
C80         C  0.12035876  0.37084574  0.44860998    -0.32000
H81         H  0.11370205  0.37465156  0.40875215     0.16500
C82         C  0.11977946  0.24294817  0.53038261    -0.31000
N83         N  0.10975634  0.22054134  0.48505577     0.13200
C84         C  0.12575150  0.24827761  0.44548400    -0.31000
C85         C  0.25300814  0.37646467  0.53950054    -0.31200
N86         N  0.27805729  0.39068013  0.49633247     0.13800
H87         H  0.26476081  0.38164965  0.57888740     0.16400
C88         C  0.25306674  0.37873436  0.45410628    -0.31300
H89         H  0.26436844  0.38541492  0.41454833     0.16400
H90         H  0.12057176  0.23910401  0.40509922     0.16400
H91         H  0.11067830  0.37713357  0.57262833     0.16500
H92         H  0.10860748  0.22811193  0.56776766     0.16400
O93         O  0.44495892  0.01898731  0.03616972    -0.88100
C94         C  0.43486145  0.43789077  0.91677910     0.87900
Mg95       Mg  0.49400472  0.08583084  0.03698157     1.58100
O96         O  0.47768246  0.42464159  0.03393244    -0.88200
O97         O  0.42009628  0.46097435  0.08297173    -0.75100
C98         C  0.17444371  0.08767889  0.99413907     0.93000
O99         O  0.46670688  0.04497409  0.91363036    -0.75000
O100        O  0.15592058  0.10862517  0.98126696    -0.82500
Mg101      Mg  0.40985013  0.49767627  0.96258303     1.58000
C102        C  0.08768007  0.41001943  0.01515158     0.92900
O103        O  0.34427201  0.44935205  0.99313272    -0.80700
H104        H  0.47160312  0.40780622  0.10849832    -0.06100
C105        C  0.06526178  0.99590448  0.92314570     0.87900
O106        O  0.03874558  0.07429377  0.08983789    -0.75200
O107        O  0.42860116  0.44906403  0.95948666    -0.88000
O108        O  0.04826371  0.39148796  0.00394172    -0.80800
C109        C  0.41365993  0.32417955  0.98164948     0.93000
C110        C  0.32375281  0.40950188  0.00345113     0.92900
Mg111      Mg  0.08857379  0.00023460  0.03788279     1.58000
O112        O  0.15391709  0.04816573  0.00623930    -0.80700
O113        O  0.03123869  0.45357318  0.08726538    -0.75000
O114        O  0.39481431  0.34611454  0.98298591    -0.80800
O115        O  0.38900132  0.04785075  0.97074052    -0.82500
O116        O  0.10311372  0.15364626  0.01136352    -0.80800
C117        C  0.99236486  0.42740651  0.07767427     0.87300
O118        O  0.07066346  0.04965175  0.04072111    -0.88000
O119        O  0.05324633  0.47791808  0.96536240    -0.88100
O120        O  0.07647781  0.03522661  0.91761119    -0.75200
Mg121      Mg  0.41149013  0.40752864  0.02690098     1.58000
O122        O  0.45362982  0.34151670  0.97494274    -0.82500
H123        H  0.43179926  0.01865000  0.11136124    -0.06300
O124        O  0.01992866  0.07327169  0.96730293    -0.87800
H125        H  0.02613839  0.09169480  0.89335791    -0.06100
H126        H  0.08337168  0.06018236  0.11631693    -0.06300
C127        C  0.50536149  0.07134099  0.92371676     0.87300
C128        C  0.43199980  0.50052282  0.07800622     0.87900
C129        C  0.06542696  0.06145558  0.08350463     0.87900
H130        H  0.06506371  0.47747330  0.88990154    -0.06200
O131        O  0.46099904  0.42421611  0.91133808    -0.75300
Mg132      Mg  0.08614448  0.08995927  0.97207199     1.58000
H133        H  0.41814492  0.44023808  0.88330603    -0.06200
C134        C  0.40843933  0.08628621  0.98756675     0.92900
O135        O  0.04394966  0.15619946  0.02884637    -0.82500
C136        C  0.08354500  0.17458113  0.01841009     0.93000
O137        O  0.34223318  0.38850506  0.01582062    -0.82500
Mg138      Mg  0.00394015  0.41129975  0.96585738     1.58200
O139        O  0.44675104  0.10408503  0.00359065    -0.80800
O140        O  0.10848240  0.44936497  0.02855501    -0.82500
O141        O  0.47721609  0.05181209  0.46312815    -0.88100
C142        C  0.06454486  0.06957311  0.57590189     0.87900
Mg143      Mg  0.41118362  0.00329523  0.46941899     1.58100
O144        O  0.07048551  0.01782500  0.46122965    -0.87800
O145        O  0.03135608  0.07374486  0.41103797    -0.75100
C146        C  0.40896695  0.32381634  0.51875874     0.93000
O147        O  0.46015130  0.03893321  0.58671913    -0.75000
O148        O  0.38881588  0.34311655  0.53153260    -0.82500
Mg149      Mg  0.00337273  0.09259119  0.53031438     1.58000
C150        C  0.08266921  0.40570272  0.48672464     0.92900
O151        O  0.04750079  0.15459226  0.48831485    -0.80700
H152        H  0.08177329  0.01850658  0.38544642    -0.06100
C153        C  0.50467299  0.43541399  0.58090379     0.87900
O154        O  0.42060982  0.45686346  0.41745600    -0.75200
O155        O  0.05223549  0.07410763  0.53310951    -0.88000
O156        O  0.10194374  0.44541821  0.49854954    -0.80800
C157        C  0.17417638  0.08362953  0.50723793     0.93000
C158        C  0.08739509  0.17488915  0.47990433     0.92900
Mg159      Mg  0.49342505  0.40643573  0.46863956     1.58000
O160        O  0.44860652  0.34372896  0.50869820    -0.80700
O161        O  0.03685341  0.46062717  0.41335789    -0.75000
O162        O  0.15381324  0.10269209  0.49428593    -0.80800
O163        O  0.45293526  0.11257176  0.52092522    -0.82500
O164        O  0.34409597  0.39591138  0.50793607    -0.80800
C165        C  0.06427495  0.49998418  0.41881525     0.87300
O166        O  0.44500216  0.42516076  0.46758106    -0.88000
O167        O  0.01977152  0.44636736  0.53721005    -0.88100
O168        O  0.46607109  0.42417969  0.58990358    -0.75200
Mg169      Mg  0.08834435  0.08511852  0.46174894     1.58000
O170        O  0.15547320  0.04463856  0.52185514    -0.82500
H171        H  0.47237062  0.06055982  0.38757756    -0.06300
O172        O  0.42747456  0.48092014  0.53998440    -0.87800
H173        H  0.41616680  0.48100913  0.61569358    -0.06100
H174        H  0.43264303  0.41019727  0.39267654    -0.06300
C175        C  0.43344543  0.99924441  0.58205548     0.87300
C176        C  0.99256116  0.06219360  0.41944170     0.87900
C177        C  0.43244863  0.42942407  0.42481973     0.87900
H178        H  0.02498116  0.43644669  0.61230422    -0.06200
O179        O  0.07636760  0.04207154  0.58311480    -0.75300
Mg180      Mg  0.40935337  0.41365721  0.53955725     1.58000
H181        H  0.06436318  0.08873961  0.60812151    -0.06200
C182        C  0.41304318  0.09093352  0.51221135     0.92900
O183        O  0.34178014  0.45330858  0.47959642    -0.82500
C184        C  0.32345052  0.41442787  0.49441435     0.93000
O185        O  0.10827526  0.15584921  0.46927960    -0.82500
Mg186      Mg  0.08575857  0.49481239  0.53208585     1.58200
O187        O  0.39371641  0.05040253  0.50625522    -0.80800
O188        O  0.04333853  0.38545236  0.47460969    -0.82500
C189        C  0.16540177  0.33173399  0.88930933    -0.01000
C190        C  0.17382520  0.36937651  0.86245918    -0.09100
C191        C  0.17470217  0.37134756  0.80786487    -0.17900
C192        C  0.16807770  0.33576550  0.77716384     0.04500
C193        C  0.16176222  0.29845145  0.80407317     0.18700
C194        C  0.16138223  0.29714113  0.85896743    -0.19300
C195        C  0.15621740  0.26254117  0.77601327    -0.20600
C196        C  0.15639821  0.26260890  0.72203594    -0.19100
C197        C  0.16203163  0.29855226  0.69406577     0.20100
C198        C  0.16812308  0.33578451  0.72106046     0.02200
C199        C  0.17453010  0.37129739  0.69045567    -0.13900
C200        C  0.17382823  0.36938920  0.63587695    -0.11600
C201        C  0.16577000  0.33186915  0.60894982     0.01700
C202        C  0.16187473  0.29732364  0.63918583    -0.23700
H203        H  0.18002448  0.39785018  0.88388534     0.09700
H204        H  0.18089584  0.40129107  0.79062886     0.13300
H205        H  0.15950377  0.26939651  0.87766983     0.12000
H206        H  0.15150166  0.23394578  0.79602785     0.13200
H207        H  0.15181818  0.23406569  0.70195289     0.12300
H208        H  0.18029802  0.40109767  0.70775913     0.09300
H209        H  0.17978537  0.39779167  0.61451687     0.12600
H210        H  0.16025190  0.26969035  0.62046321     0.14500
C211        C  0.17662329  0.33632512  0.11397744    -0.01000
C212        C  0.18494652  0.30677069  0.13951554    -0.09100
C213        C  0.19028580  0.30848867  0.19275415    -0.17900
C214        C  0.18913508  0.34116166  0.22193585     0.04500
C215        C  0.18665411  0.37435391  0.19507568     0.18700
C216        C  0.18264240  0.37266358  0.14136221    -0.19300
C217        C  0.18682888  0.40828270  0.22203383    -0.20600
C218        C  0.18589430  0.40802354  0.27567258    -0.19100
C219        C  0.18538261  0.37414326  0.30304525     0.20100
C220        C  0.18918506  0.34145542  0.27668876     0.02200
C221        C  0.19220378  0.31012025  0.30638729    -0.13900
C222        C  0.18663688  0.30859021  0.35952244    -0.11600
C223        C  0.17585878  0.33669447  0.38439133     0.01700
C224        C  0.18008992  0.37213724  0.35663143    -0.23700
H225        H  0.18753262  0.28212138  0.11836681     0.09700
H226        H  0.19446091  0.28340661  0.20970935     0.13300
H227        H  0.18415134  0.39977659  0.12119313     0.12000
H228        H  0.18570426  0.43408696  0.20155076     0.13200
H229        H  0.18407864  0.43362688  0.29575481     0.12300
H230        H  0.19885772  0.28646251  0.28998266     0.09300
H231        H  0.19101863  0.28524578  0.38116140     0.12600
H232        H  0.17955602  0.39841391  0.37646623     0.14500
C233        C  0.33061543  0.16984394  0.88528325    -0.01000
C234        C  0.30053154  0.17722156  0.85991424    -0.09100
C235        C  0.30162789  0.18206339  0.80670312    -0.17900
C236        C  0.33427453  0.18158960  0.77733930     0.04500
C237        C  0.36825277  0.18079409  0.80396015     0.18700
C238        C  0.36674589  0.17640087  0.85757475    -0.19300
C239        C  0.40303176  0.18350534  0.77688120    -0.20600
C240        C  0.40308248  0.18363840  0.72325814    -0.19100
C241        C  0.36823091  0.18077990  0.69611523     0.20100
C242        C  0.33407138  0.18120725  0.72266068     0.02200
C243        C  0.30072915  0.18032285  0.69327021    -0.13900
C244        C  0.29955991  0.17519018  0.64009170    -0.11600
C245        C  0.33041097  0.16904189  0.61471617     0.01700
C246        C  0.36686672  0.17659273  0.64249691    -0.23700
H247        H  0.27643337  0.18031348  0.88118473     0.09700
H248        H  0.27660420  0.18625625  0.79002906     0.13300
H249        H  0.39407724  0.17856293  0.87755890     0.12000
H250        H  0.42954078  0.18395899  0.79720420     0.13200
H251        H  0.42963673  0.18419925  0.70297787     0.12300
H252        H  0.27498464  0.18327479  0.70992081     0.09300
H253        H  0.27476313  0.17709952  0.61882456     0.12600
H254        H  0.39464603  0.17984582  0.62261172     0.14500
C255        C  0.33055040  0.16640781  0.38994379    -0.01000
C256        C  0.32344747  0.12920701  0.36302759    -0.09100
C257        C  0.32241447  0.12718924  0.30849650    -0.17900
C258        C  0.32723499  0.16213309  0.27794524     0.04500
C259        C  0.33175112  0.19876369  0.30493741     0.18700
C260        C  0.33264735  0.20025646  0.35983326    -0.19300
C261        C  0.33517001  0.23382882  0.27693615    -0.20600
C262        C  0.33515779  0.23380958  0.22294053    -0.19100
C263        C  0.33182162  0.19876424  0.19492800     0.20100
C264        C  0.32731572  0.16215042  0.22188876     0.02200
C265        C  0.32267971  0.12726251  0.19130690    -0.13900
C266        C  0.32393106  0.12934327  0.13679390    -0.11600
C267        C  0.33111901  0.16657891  0.10996400     0.01700
C268        C  0.33287358  0.20029351  0.14005362    -0.23700
H269        H  0.31857349  0.10115073  0.38432170     0.09700
H270        H  0.31760607  0.09771829  0.29121360     0.13300
H271        H  0.33370729  0.22758716  0.37877534     0.12000
H272        H  0.33825943  0.26179687  0.29700598     0.13200
H273        H  0.33823417  0.26175649  0.20288727     0.12300
H274        H  0.31786687  0.09779413  0.20855195     0.09300
H275        H  0.31905619  0.10127787  0.11548466     0.12600
H276        H  0.33394840  0.22761117  0.12106055     0.14500
C277        C  0.33230433  0.66792805  0.04978030     0.30300
C278        C  0.32988510  0.66641684  0.94340925     0.30300
C279        C  0.35482523  0.64569413  0.02220332    -0.05900
C280        C  0.28732075  0.64470009  0.02413003    -0.06700
C281        C  0.35392874  0.71253296  0.02186903    -0.06600
C282        C  0.35218712  0.64417679  0.96817792    -0.05900
C283        C  0.28668602  0.64408404  0.97010818    -0.06700
C284        C  0.35176902  0.71046400  0.96800477    -0.06600
C285        C  0.36995256  0.62045354  0.95017888    -0.32000
N286        N  0.38611943  0.60986928  0.99089551     0.14500
C287        C  0.37740609  0.62496436  0.03506020    -0.32000
H288        H  0.38631829  0.62050589  0.07358197     0.16500
C289        C  0.24502465  0.62156870  0.95387019    -0.31000
N290        N  0.21993144  0.60940309  0.99601652     0.13200
C291        C  0.24492197  0.62274238  0.03929018    -0.31000
C292        C  0.37303098  0.75105809  0.94783601    -0.31200
N293        N  0.38901364  0.77871854  0.98749897     0.13800
H294        H  0.37732908  0.75991577  0.90732244     0.16400
C295        C  0.37839782  0.75624234  0.03284725    -0.31300
H296        H  0.38901723  0.77088034  0.07050487     0.16400
H297        H  0.23311458  0.61732608  0.07862394     0.16400
H298        H  0.37124906  0.61139892  0.91056045     0.16500
H299        H  0.23335047  0.61392194  0.91453769     0.16400
C300        C  0.33176157  0.66764565  0.45018245     0.30300
C301        C  0.32976118  0.66579810  0.55657468     0.30300
C302        C  0.35527794  0.64621537  0.47739441    -0.05900
C303        C  0.35261762  0.71211846  0.47843473    -0.06700
C304        C  0.28685240  0.64358772  0.47599113    -0.06600
C305        C  0.35333290  0.64507089  0.53147593    -0.05900
C306        C  0.35018553  0.70989340  0.53227595    -0.06700
C307        C  0.28657030  0.64212049  0.52997683    -0.06600
C308        C  0.37307297  0.62322994  0.54935511    -0.32000
N309        N  0.38905579  0.61275044  0.50847802     0.14500
C310        C  0.37850430  0.62617049  0.46426512    -0.32000
H311        H  0.38718790  0.62166574  0.42565163     0.16500
C312        C  0.36996104  0.75049221  0.55269696    -0.31000
N313        N  0.38603085  0.77825666  0.51321479     0.13200
C314        C  0.37663288  0.75586291  0.46781995    -0.31000
C315        C  0.24518968  0.61797014  0.54646190    -0.31200
N316        N  0.21967521  0.60683261  0.50468946     0.13800
H317        H  0.23400070  0.60927771  0.58581546     0.16400
C318        C  0.24427059  0.62191032  0.46126506    -0.31300
H319        H  0.23209387  0.61721057  0.42210188     0.16400
H320        H  0.38740432  0.77069674  0.43033124     0.16400
H321        H  0.37530513  0.61474748  0.58894593     0.16500
H322        H  0.37353228  0.75927975  0.59323487     0.16400
C323        C  0.17008252  0.83343951  0.05607596     0.30300
C324        C  0.16532384  0.83078851  0.94964146     0.30300
C325        C  0.14641969  0.85457845  0.03209342    -0.05900
C326        C  0.21204698  0.85424902  0.02773414    -0.06700
C327        C  0.14634289  0.78863713  0.03246578    -0.06600
C328        C  0.14367908  0.85359275  0.97798824    -0.05900
C329        C  0.21067777  0.85377569  0.97398120    -0.06700
C330        C  0.14367925  0.78627172  0.97833332    -0.06600
C331        C  0.12018526  0.87352804  0.96590699    -0.32000
N332        N  0.10950917  0.88606441  0.01072707     0.14500
C333        C  0.12450948  0.87389771  0.05109410    -0.32000
H334        H  0.11876077  0.87818495  0.09113772     0.16500
C335        C  0.25303961  0.87539402  0.95836535    -0.31000
N336        N  0.27833919  0.88767560  0.00147635     0.13200
C337        C  0.25356591  0.87475614  0.04380270    -0.31000
C338        C  0.11833744  0.74260514  0.96759595    -0.31200
N339        N  0.10692122  0.72024231  0.01296582     0.13800
H340        H  0.10751776  0.72780837  0.93007372     0.16400
C341        C  0.12286673  0.74800953  0.05259650    -0.31300
H342        H  0.11710965  0.73894905  0.09295654     0.16400
H343        H  0.26507399  0.88012074  0.08333291     0.16400
H344        H  0.11163675  0.87879647  0.92755505     0.16500
H345        H  0.26458465  0.88126790  0.91891322     0.16400
C346        C  0.16949194  0.83394679  0.44225706     0.30300
C347        C  0.16545471  0.83095461  0.54866675     0.30300
C348        C  0.14434875  0.85340017  0.46673414    -0.05900
C349        C  0.14757674  0.78906391  0.46572064    -0.06700
C350        C  0.21164107  0.85633608  0.47034606    -0.06600
C351        C  0.14256857  0.85270499  0.52089732    -0.05900
C352        C  0.14472754  0.78660247  0.51979909    -0.06700
C353        C  0.21060060  0.85494780  0.52407991    -0.06600
C354        C  0.11861711  0.87187633  0.53394524    -0.32000
N355        N  0.10578969  0.88289313  0.48967357     0.14500
C356        C  0.12035876  0.87084571  0.44860996    -0.32000
H357        H  0.11370205  0.87465148  0.40875190     0.16500
C358        C  0.11977940  0.74294827  0.53038251    -0.31000
N359        N  0.10975628  0.72054134  0.48505585     0.13200
C360        C  0.12575153  0.74827759  0.44548404    -0.31000
C361        C  0.25300808  0.87646473  0.53950055    -0.31200
N362        N  0.27805726  0.89068011  0.49633252     0.13800
H363        H  0.26476073  0.88164966  0.57888751     0.16400
C364        C  0.25306675  0.87873422  0.45410626    -0.31300
H365        H  0.26436846  0.88541483  0.41454844     0.16400
H366        H  0.12057188  0.73910394  0.40509929     0.16400
H367        H  0.11067841  0.87713368  0.57262771     0.16500
H368        H  0.10860741  0.72811195  0.56776795     0.16400
O369        O  0.44495893  0.51898734  0.03616974    -0.88100
C370        C  0.43486142  0.93789074  0.91677906     0.87900
Mg371      Mg  0.49400473  0.58583084  0.03698157     1.58100
O372        O  0.47768244  0.92464157  0.03393242    -0.88200
O373        O  0.42009625  0.96097431  0.08297169    -0.75100
C374        C  0.17444368  0.58767888  0.99413903     0.93000
O375        O  0.46670690  0.54497417  0.91363038    -0.75000
O376        O  0.15592056  0.60862517  0.98126691    -0.82500
Mg377      Mg  0.40985009  0.99767624  0.96258303     1.58000
C378        C  0.08768007  0.91001944  0.01515158     0.92900
O379        O  0.34427198  0.94935208  0.99313278    -0.80700
H380        H  0.47160312  0.90780629  0.10849833    -0.06100
C381        C  0.06526179  0.49590450  0.92314577     0.87900
O382        O  0.03874567  0.57429388  0.08983792    -0.75200
O383        O  0.42860110  0.94906397  0.95948661    -0.88000
O384        O  0.04826372  0.89148796  0.00394174    -0.80800
C385        C  0.41365987  0.82417947  0.98164953     0.93000
C386        C  0.32375280  0.90950191  0.00345115     0.92900
Mg387      Mg  0.08857379  0.50023462  0.03788284     1.58000
O388        O  0.15391707  0.54816573  0.00623938    -0.80700
O389        O  0.03123870  0.95357322  0.08726535    -0.75000
O390        O  0.39481423  0.84611444  0.98298593    -0.80800
O391        O  0.38900130  0.54785068  0.97074048    -0.82500
O392        O  0.10311370  0.65364623  0.01136346    -0.80800
C393        C  0.99236487  0.92740654  0.07767426     0.87300
O394        O  0.07066350  0.54965182  0.04072113    -0.88000
O395        O  0.05324633  0.97791807  0.96536236    -0.88100
O396        O  0.07647782  0.53522661  0.91761121    -0.75200
Mg397      Mg  0.41149010  0.90752861  0.02690095     1.58000
O398        O  0.45362977  0.84151662  0.97494279    -0.82500
H399        H  0.43179931  0.51865003  0.11136123    -0.06300
O400        O  0.01992866  0.57327167  0.96730296    -0.87800
H401        H  0.02613842  0.59169495  0.89335795    -0.06100
H402        H  0.08337171  0.56018241  0.11631694    -0.06300
C403        C  0.50536150  0.57134104  0.92371682     0.87300
C404        C  0.43199977  0.00052278  0.07800619     0.87900
C405        C  0.06542702  0.56145567  0.08350465     0.87900
H406        H  0.06506369  0.97747335  0.88990158    -0.06200
O407        O  0.46099904  0.92421612  0.91133809    -0.75300
Mg408      Mg  0.08614448  0.58995926  0.97207198     1.58000
H409        H  0.41814499  0.94023813  0.88330595    -0.06200
C410        C  0.40843931  0.58628615  0.98756672     0.92900
O411        O  0.04394967  0.65619947  0.02884631    -0.82500
C412        C  0.08354500  0.67458113  0.01841002     0.93000
O413        O  0.34223317  0.88850508  0.01582058    -0.82500
Mg414      Mg  0.00394012  0.91129968  0.96585737     1.58200
O415        O  0.44675102  0.60408500  0.00359064    -0.80800
O416        O  0.10848237  0.94936497  0.02855497    -0.82500
O417        O  0.47721611  0.55181216  0.46312816    -0.88100
C418        C  0.06454495  0.56957315  0.57590178     0.87900
Mg419      Mg  0.41118365  0.50329526  0.46941898     1.58100
O420        O  0.07048554  0.51782505  0.46122971    -0.87800
O421        O  0.03135614  0.57374498  0.41103798    -0.75100
C422        C  0.40896692  0.82381631  0.51875872     0.93000
O423        O  0.46015124  0.53893324  0.58671913    -0.75000
O424        O  0.38881586  0.84311652  0.53153257    -0.82500
Mg425      Mg  0.00337274  0.59259119  0.53031440     1.58000
C426        C  0.08266927  0.90570277  0.48672446     0.92900
O427        O  0.04750074  0.65459221  0.48831485    -0.80700
H428        H  0.08177336  0.51850667  0.38544655    -0.06100
C429        C  0.50467296  0.93541395  0.58090381     0.87900
O430        O  0.42060989  0.95686350  0.41745601    -0.75200
O431        O  0.05223555  0.57410769  0.53310950    -0.88000
O432        O  0.10194378  0.94541824  0.49854936    -0.80800
C433        C  0.17417638  0.58362955  0.50723796     0.93000
C434        C  0.08739507  0.67488914  0.47990443     0.92900
Mg435      Mg  0.49342500  0.90643563  0.46863961     1.58000
O436        O  0.44860654  0.84372893  0.50869842    -0.80700
O437        O  0.03685335  0.96062708  0.41335787    -0.75000
O438        O  0.15381325  0.60269212  0.49428601    -0.80800
O439        O  0.45293520  0.61257175  0.52092525    -0.82500
O440        O  0.34409592  0.89591131  0.50793609    -0.80800
C441        C  0.06427488  0.99998410  0.41881522     0.87300
O442        O  0.44500208  0.92516065  0.46758108    -0.88000
O443        O  0.01977152  0.94636730  0.53721003    -0.88100
O444        O  0.46607106  0.92417967  0.58990357    -0.75200
Mg445      Mg  0.08834437  0.58511856  0.46174896     1.58000
O446        O  0.15547318  0.54463859  0.52185519    -0.82500
H447        H  0.47237064  0.56055986  0.38757760    -0.06300
O448        O  0.42747454  0.98092008  0.53998440    -0.87800
H449        H  0.41616687  0.98100913  0.61569355    -0.06100
H450        H  0.43264313  0.91019735  0.39267654    -0.06300
C451        C  0.43344540  0.49924446  0.58205546     0.87300
C452        C  0.99256121  0.56219367  0.41944170     0.87900
C453        C  0.43244865  0.92942406  0.42481972     0.87900
H454        H  0.02498114  0.93644670  0.61230424    -0.06200
O455        O  0.07636770  0.54207166  0.58311483    -0.75300
Mg456      Mg  0.40935334  0.91365717  0.53955727     1.58000
H457        H  0.06436327  0.58873990  0.60812175    -0.06200
C458        C  0.41304313  0.59093348  0.51221135     0.92900
O459        O  0.34178012  0.95330855  0.47959643    -0.82500
C460        C  0.32345049  0.91442785  0.49441441     0.93000
O461        O  0.10827524  0.65584921  0.46927967    -0.82500
Mg462      Mg  0.08575857  0.99481235  0.53208577     1.58200
O463        O  0.39371638  0.55040249  0.50625520    -0.80800
O464        O  0.04333856  0.88545234  0.47460958    -0.82500
C465        C  0.16540181  0.83173411  0.88930935    -0.01000
C466        C  0.17382522  0.86937651  0.86245912    -0.09100
C467        C  0.17470226  0.87134777  0.80786487    -0.17900
C468        C  0.16807776  0.83576568  0.77716387     0.04500
C469        C  0.16176229  0.79845167  0.80407317     0.18700
C470        C  0.16138224  0.79714122  0.85896744    -0.19300
C471        C  0.15621745  0.76254121  0.77601345    -0.20600
C472        C  0.15639825  0.76260910  0.72203603    -0.19100
C473        C  0.16203157  0.79855243  0.69406585     0.20100
C474        C  0.16812312  0.83578474  0.72106048     0.02200
C475        C  0.17453006  0.87129757  0.69045563    -0.13900
C476        C  0.17382815  0.86938924  0.63587696    -0.11600
C477        C  0.16576986  0.83186920  0.60894984     0.01700
C478        C  0.16187461  0.79732366  0.63918583    -0.23700
H479        H  0.18002459  0.89785055  0.88388546     0.09700
H480        H  0.18089589  0.90129113  0.79062894     0.13300
H481        H  0.15950381  0.76939685  0.87766963     0.12000
H482        H  0.15150178  0.73394625  0.79602775     0.13200
H483        H  0.15181812  0.73406580  0.70195298     0.12300
H484        H  0.18029808  0.90109790  0.70775902     0.09300
H485        H  0.17978542  0.89779189  0.61451669     0.12600
H486        H  0.16025189  0.76969067  0.62046347     0.14500
C487        C  0.17662334  0.83632517  0.11397743    -0.01000
C488        C  0.18494648  0.80677056  0.13951544    -0.09100
C489        C  0.19028574  0.80848878  0.19275405    -0.17900
C490        C  0.18913504  0.84116160  0.22193586     0.04500
C491        C  0.18665408  0.87435392  0.19507571     0.18700
C492        C  0.18264241  0.87266369  0.14136212    -0.19300
C493        C  0.18682891  0.90828253  0.22203404    -0.20600
C494        C  0.18589433  0.90802346  0.27567273    -0.19100
C495        C  0.18538265  0.87414316  0.30304534     0.20100
C496        C  0.18918513  0.84145544  0.27668880     0.02200
C497        C  0.19220388  0.81012017  0.30638723    -0.13900
C498        C  0.18663687  0.80859030  0.35952236    -0.11600
C499        C  0.17585874  0.83669442  0.38439133     0.01700
C500        C  0.18008999  0.87213728  0.35663150    -0.23700
H501        H  0.18753244  0.78212148  0.11836700     0.09700
H502        H  0.19446092  0.78340640  0.20970945     0.13300
H503        H  0.18415135  0.89977657  0.12119315     0.12000
H504        H  0.18570429  0.93408711  0.20155091     0.13200
H505        H  0.18407863  0.93362662  0.29575492     0.12300
H506        H  0.19885776  0.78646271  0.28998273     0.09300
H507        H  0.19101872  0.78524561  0.38116155     0.12600
H508        H  0.17955620  0.89841387  0.37646625     0.14500
C509        C  0.33061543  0.66984388  0.88528322    -0.01000
C510        C  0.30053163  0.67722162  0.85991420    -0.09100
C511        C  0.30162802  0.68206348  0.80670308    -0.17900
C512        C  0.33427455  0.68158954  0.77733928     0.04500
C513        C  0.36825279  0.68079400  0.80396012     0.18700
C514        C  0.36674588  0.67640075  0.85757473    -0.19300
C515        C  0.40303184  0.68350537  0.77688121    -0.20600
C516        C  0.40308257  0.68363849  0.72325816    -0.19100
C517        C  0.36823095  0.68077993  0.69611526     0.20100
C518        C  0.33407138  0.68120720  0.72266066     0.02200
C519        C  0.30072902  0.68032281  0.69327027    -0.13900
C520        C  0.29955994  0.67519019  0.64009168    -0.11600
C521        C  0.33041105  0.66904197  0.61471618     0.01700
C522        C  0.36686682  0.67659279  0.64249694    -0.23700
H523        H  0.27643334  0.68031342  0.88118459     0.09700
H524        H  0.27660432  0.68625619  0.79002913     0.13300
H525        H  0.39407724  0.67856287  0.87755889     0.12000
H526        H  0.42954084  0.68395895  0.79720419     0.13200
H527        H  0.42963680  0.68419930  0.70297791     0.12300
H528        H  0.27498474  0.68327454  0.70992060     0.09300
H529        H  0.27476307  0.67709946  0.61882456     0.12600
H530        H  0.39464611  0.67984592  0.62261183     0.14500
C531        C  0.33055035  0.66640787  0.38994379    -0.01000
C532        C  0.32344746  0.62920720  0.36302744    -0.09100
C533        C  0.32241443  0.62718930  0.30849649    -0.17900
C534        C  0.32723494  0.66213298  0.27794520     0.04500
C535        C  0.33175101  0.69876358  0.30493739     0.18700
C536        C  0.33264723  0.70025636  0.35983319    -0.19300
C537        C  0.33516991  0.73382851  0.27693604    -0.20600
C538        C  0.33515772  0.73380943  0.22294052    -0.19100
C539        C  0.33182146  0.69876402  0.19492803     0.20100
C540        C  0.32731569  0.66215038  0.22188878     0.02200
C541        C  0.32267969  0.62726232  0.19130711    -0.13900
C542        C  0.32393112  0.62934345  0.13679415    -0.11600
C543        C  0.33111890  0.66657885  0.10996409     0.01700
C544        C  0.33287343  0.70029354  0.14005362    -0.23700
H545        H  0.31857343  0.60115069  0.38432172     0.09700
H546        H  0.31760597  0.59771822  0.29121367     0.13300
H547        H  0.33370726  0.72758738  0.37877536     0.12000
H548        H  0.33825935  0.76179695  0.29700602     0.13200
H549        H  0.33823398  0.76175607  0.20288745     0.12300
H550        H  0.31786696  0.59779447  0.20855186     0.09300
H551        H  0.31905624  0.60127758  0.11548464     0.12600
H552        H  0.33394834  0.72761085  0.12106088     0.14500
C553        C  0.83230437  0.16792815  0.04978026     0.30300
C554        C  0.82988516  0.16641688  0.94340926     0.30300
C555        C  0.85482533  0.14569430  0.02220328    -0.05900
C556        C  0.78732081  0.14470023  0.02413002    -0.06700
C557        C  0.85392872  0.21253305  0.02186903    -0.06600
C558        C  0.85218716  0.14417684  0.96817790    -0.05900
C559        C  0.78668609  0.14408412  0.97010819    -0.06700
C560        C  0.85176914  0.21046404  0.96800476    -0.06600
C561        C  0.86995255  0.12045353  0.95017890    -0.32000
N562        N  0.88611945  0.10986933  0.99089562     0.14500
C563        C  0.87740618  0.12496457  0.03506018    -0.32000
H564        H  0.88631829  0.12050605  0.07358218     0.16500
C565        C  0.74502473  0.12156869  0.95387023    -0.31000
N566        N  0.71993150  0.10940314  0.99601653     0.13200
C567        C  0.74492205  0.12274252  0.03929011    -0.31000
C568        C  0.87303111  0.25105810  0.94783600    -0.31200
N569        N  0.88901369  0.27871859  0.98749892     0.13800
H570        H  0.87732923  0.25991581  0.90732238     0.16400
C571        C  0.87839775  0.25624239  0.03284711    -0.31300
H572        H  0.88901731  0.27088049  0.07050500     0.16400
H573        H  0.73311462  0.11732624  0.07862404     0.16400
H574        H  0.87124912  0.11139896  0.91056062     0.16500
H575        H  0.73335057  0.11392190  0.91453770     0.16400
C576        C  0.83176160  0.16764569  0.45018244     0.30300
C577        C  0.82976114  0.16579809  0.55657466     0.30300
C578        C  0.85527807  0.14621548  0.47739441    -0.05900
C579        C  0.85261764  0.21211852  0.47843470    -0.06700
C580        C  0.78685240  0.14358776  0.47599113    -0.06600
C581        C  0.85333292  0.14507091  0.53147591    -0.05900
C582        C  0.85018555  0.20989343  0.53227593    -0.06700
C583        C  0.78657028  0.14212042  0.52997680    -0.06600
C584        C  0.87307296  0.12322991  0.54935507    -0.32000
N585        N  0.88905584  0.11275047  0.50847800     0.14500
C586        C  0.87850445  0.12617061  0.46426508    -0.32000
H587        H  0.88718797  0.12166580  0.42565166     0.16500
C588        C  0.86996106  0.25049222  0.55269699    -0.31000
N589        N  0.88603088  0.27825669  0.51321484     0.13200
C590        C  0.87663292  0.25586300  0.46781989    -0.31000
C591        C  0.74518965  0.11797004  0.54646194    -0.31200
N592        N  0.71967520  0.10683261  0.50468946     0.13800
H593        H  0.73400072  0.10927767  0.58581539     0.16400
C594        C  0.74427058  0.12191039  0.46126506    -0.31300
H595        H  0.73209391  0.11721070  0.42210190     0.16400
H596        H  0.88740430  0.27069680  0.43033136     0.16400
H597        H  0.87530508  0.11474742  0.58894590     0.16500
H598        H  0.87353218  0.25927969  0.59323489     0.16400
C599        C  0.67008251  0.33343954  0.05607591     0.30300
C600        C  0.66532381  0.33078846  0.94964142     0.30300
C601        C  0.64641971  0.35457848  0.03209338    -0.05900
C602        C  0.71204697  0.35424898  0.02773404    -0.06700
C603        C  0.64634283  0.28863713  0.03246573    -0.06600
C604        C  0.64367909  0.35359274  0.97798820    -0.05900
C605        C  0.71067776  0.35377562  0.97398110    -0.06700
C606        C  0.64367911  0.28627168  0.97833327    -0.06600
C607        C  0.62018530  0.37352804  0.96590704    -0.32000
N608        N  0.60950913  0.38606439  0.01072699     0.14500
C609        C  0.62450949  0.37389773  0.05109402    -0.32000
H610        H  0.61876087  0.37818509  0.09113763     0.16500
C611        C  0.75303962  0.37539399  0.95836523    -0.31000
N612        N  0.77833918  0.38767557  0.00147625     0.13200
C613        C  0.75356590  0.37475608  0.04380259    -0.31000
C614        C  0.61833730  0.24260509  0.96759594    -0.31200
N615        N  0.60692121  0.22024230  0.01296582     0.13800
H616        H  0.60751767  0.22780826  0.93007369     0.16400
C617        C  0.62286677  0.24800953  0.05259648    -0.31300
H618        H  0.61710969  0.23894906  0.09295655     0.16400
H619        H  0.76507397  0.38012075  0.08333279     0.16400
H620        H  0.61163677  0.37879656  0.92755477     0.16500
H621        H  0.76458467  0.38126785  0.91891312     0.16400
C622        C  0.66949197  0.33394689  0.44225707     0.30300
C623        C  0.66545475  0.33095462  0.54866676     0.30300
C624        C  0.64434880  0.35340027  0.46673417    -0.05900
C625        C  0.64757673  0.28906397  0.46572061    -0.06700
C626        C  0.71164108  0.35633616  0.47034611    -0.06600
C627        C  0.64256866  0.35270507  0.52089734    -0.05900
C628        C  0.64472756  0.28660247  0.51979907    -0.06700
C629        C  0.71060064  0.35494777  0.52407997    -0.06600
C630        C  0.61861713  0.37187626  0.53394508    -0.32000
N631        N  0.60578965  0.38289310  0.48967366     0.14500
C632        C  0.62035877  0.37084575  0.44860996    -0.32000
H633        H  0.61370212  0.37465157  0.40875208     0.16500
C634        C  0.61977941  0.24294822  0.53038255    -0.31000
N635        N  0.60975630  0.22054136  0.48505576     0.13200
C636        C  0.62575149  0.24827762  0.44548397    -0.31000
C637        C  0.75300816  0.37646468  0.53950056    -0.31200
N638        N  0.77805729  0.39068013  0.49633246     0.13800
H639        H  0.76476089  0.38164975  0.57888738     0.16400
C640        C  0.75306672  0.37873431  0.45410635    -0.31300
H641        H  0.76436848  0.38541495  0.41454823     0.16400
H642        H  0.62057182  0.23910398  0.40509922     0.16400
H643        H  0.61067830  0.37713356  0.57262815     0.16500
H644        H  0.60860750  0.22811194  0.56776768     0.16400
O645        O  0.94495897  0.01898732  0.03616970    -0.88100
C646        C  0.93486149  0.43789077  0.91677902     0.87900
Mg647      Mg  0.99400473  0.08583084  0.03698155     1.58100
O648        O  0.97768246  0.42464157  0.03393239    -0.88200
O649        O  0.92009629  0.46097434  0.08297168    -0.75100
C650        C  0.67444373  0.08767892  0.99413901     0.93000
O651        O  0.96670690  0.04497409  0.91363030    -0.75000
O652        O  0.65592060  0.10862520  0.98126694    -0.82500
Mg653      Mg  0.90985014  0.49767626  0.96258298     1.58000
C654        C  0.58768006  0.41001946  0.01515154     0.92900
O655        O  0.84427200  0.44935206  0.99313269    -0.80700
H656        H  0.97160310  0.40780624  0.10849823    -0.06100
C657        C  0.56526169  0.99590443  0.92314562     0.87900
O658        O  0.53874559  0.07429376  0.08983792    -0.75200
O659        O  0.92860114  0.44906398  0.95948658    -0.88000
O660        O  0.54826369  0.39148799  0.00394170    -0.80800
C661        C  0.91365993  0.32417954  0.98164945     0.93000
C662        C  0.82375280  0.40950188  0.00345110     0.92900
Mg663      Mg  0.58857379  0.00023463  0.03788279     1.58000
O664        O  0.65391709  0.04816575  0.00623923    -0.80700
O665        O  0.53123871  0.45357321  0.08726540    -0.75000
O666        O  0.89481429  0.34611451  0.98298589    -0.80800
O667        O  0.88900134  0.04785075  0.97074049    -0.82500
O668        O  0.60311377  0.15364627  0.01136354    -0.80800
C669        C  0.49236488  0.42740653  0.07767429     0.87300
O670        O  0.57066351  0.04965180  0.04072113    -0.88000
O671        O  0.55324622  0.47791807  0.96536239    -0.88100
O672        O  0.57647773  0.03522660  0.91761120    -0.75200
Mg673      Mg  0.91149012  0.40752862  0.02690093     1.58000
O674        O  0.95362983  0.34151669  0.97494274    -0.82500
H675        H  0.93179926  0.01864988  0.11136102    -0.06300
O676        O  0.51992866  0.07327167  0.96730296    -0.87800
H677        H  0.52613839  0.09169479  0.89335789    -0.06100
H678        H  0.58337168  0.06018235  0.11631696    -0.06300
C679        C  0.00536151  0.07134102  0.92371672     0.87300
C680        C  0.93199980  0.50052285  0.07800625     0.87900
C681        C  0.56542697  0.06145559  0.08350466     0.87900
H682        H  0.56506362  0.47747339  0.88990172    -0.06200
O683        O  0.96099911  0.42421613  0.91133807    -0.75300
Mg684      Mg  0.58614448  0.08995928  0.97207200     1.58000
H685        H  0.91814504  0.44023812  0.88330595    -0.06200
C686        C  0.90843932  0.08628618  0.98756679     0.92900
O687        O  0.54394969  0.15619946  0.02884632    -0.82500
C688        C  0.58354502  0.17458113  0.01841004     0.93000
O689        O  0.84223316  0.38850505  0.01582057    -0.82500
Mg690      Mg  0.50394010  0.41129975  0.96585739     1.58200
O691        O  0.94675106  0.10408503  0.00359063    -0.80800
O692        O  0.60848237  0.44936498  0.02855501    -0.82500
O693        O  0.97721604  0.05181206  0.46312815    -0.88100
C694        C  0.56454490  0.06957312  0.57590191     0.87900
Mg695      Mg  0.91118362  0.00329521  0.46941898     1.58100
O696        O  0.57048552  0.01782504  0.46122964    -0.87800
O697        O  0.53135611  0.07374484  0.41103798    -0.75100
C698        C  0.90896692  0.32381632  0.51875874     0.93000
O699        O  0.96015125  0.03893320  0.58671912    -0.75000
O700        O  0.88881586  0.34311654  0.53153260    -0.82500
Mg701      Mg  0.50337276  0.09259121  0.53031438     1.58000
C702        C  0.58266923  0.40570274  0.48672456     0.92900
O703        O  0.54750080  0.15459226  0.48831482    -0.80700
H704        H  0.58177309  0.01850647  0.38544659    -0.06100
C705        C  0.00467299  0.43541399  0.58090382     0.87900
O706        O  0.92060986  0.45686347  0.41745600    -0.75200
O707        O  0.55223553  0.07410763  0.53310953    -0.88000
O708        O  0.60194376  0.44541820  0.49854954    -0.80800
C709        C  0.67417640  0.08362953  0.50723795     0.93000
C710        C  0.58739510  0.17488916  0.47990435     0.92900
Mg711      Mg  0.99342504  0.40643571  0.46863959     1.58000
O712        O  0.94860650  0.34372893  0.50869828    -0.80700
O713        O  0.53685335  0.46062723  0.41335791    -0.75000
O714        O  0.65381328  0.10269211  0.49428603    -0.80800
O715        O  0.95293525  0.11257174  0.52092521    -0.82500
O716        O  0.84409599  0.39591138  0.50793611    -0.80800
C717        C  0.56427490  0.49998421  0.41881533     0.87300
O718        O  0.94500215  0.42516073  0.46758105    -0.88000
O719        O  0.51977153  0.44636736  0.53721003    -0.88100
O720        O  0.96607107  0.42417967  0.58990358    -0.75200
Mg721      Mg  0.58834438  0.08511854  0.46174896     1.58000
O722        O  0.65547321  0.04463856  0.52185513    -0.82500
H723        H  0.97237053  0.06055990  0.38757750    -0.06300
O724        O  0.92747456  0.48092009  0.53998437    -0.87800
H725        H  0.91616685  0.48100912  0.61569344    -0.06100
H726        H  0.93264301  0.41019713  0.39267639    -0.06300
C727        C  0.93344539  0.99924439  0.58205547     0.87300
C728        C  0.49256119  0.06219359  0.41944166     0.87900
C729        C  0.93244863  0.42942409  0.42481979     0.87900
H730        H  0.52498119  0.43644669  0.61230425    -0.06200
O731        O  0.57636764  0.04207155  0.58311481    -0.75300
Mg732      Mg  0.90935337  0.41365718  0.53955723     1.58000
H733        H  0.56436327  0.08873966  0.60812150    -0.06200
C734        C  0.91304317  0.09093350  0.51221134     0.92900
O735        O  0.84178013  0.45330856  0.47959639    -0.82500
C736        C  0.82345052  0.41442785  0.49441434     0.93000
O737        O  0.60827529  0.15584922  0.46927963    -0.82500
Mg738      Mg  0.58575860  0.49481242  0.53208584     1.58200
O739        O  0.89371640  0.05040251  0.50625521    -0.80800
O740        O  0.54333854  0.38545235  0.47460959    -0.82500
C741        C  0.66540174  0.33173397  0.88930934    -0.01000
C742        C  0.67382522  0.36937651  0.86245921    -0.09100
C743        C  0.67470225  0.37134762  0.80786491    -0.17900
C744        C  0.66807779  0.33576560  0.77716384     0.04500
C745        C  0.66176230  0.29845152  0.80407314     0.18700
C746        C  0.66138227  0.29714116  0.85896740    -0.19300
C747        C  0.65621739  0.26254128  0.77601317    -0.20600
C748        C  0.65639810  0.26260885  0.72203584    -0.19100
C749        C  0.66203150  0.29855227  0.69406574     0.20100
C750        C  0.66812310  0.33578453  0.72106045     0.02200
C751        C  0.67453011  0.37129743  0.69045571    -0.13900
C752        C  0.67382822  0.36938917  0.63587701    -0.11600
C753        C  0.66576992  0.33186916  0.60894984     0.01700
C754        C  0.66187459  0.29732355  0.63918575    -0.23700
H755        H  0.68002450  0.39785016  0.88388543     0.09700
H756        H  0.68089595  0.40129117  0.79062896     0.13300
H757        H  0.65950379  0.26939648  0.87766979     0.12000
H758        H  0.65150161  0.23394570  0.79602783     0.13200
H759        H  0.65181807  0.23406587  0.70195295     0.12300
H760        H  0.68029806  0.40109764  0.70775914     0.09300
H761        H  0.67978548  0.39779181  0.61451689     0.12600
H762        H  0.66025182  0.26969057  0.62046330     0.14500
C763        C  0.67662330  0.33632520  0.11397742    -0.01000
C764        C  0.68494656  0.30677078  0.13951552    -0.09100
C765        C  0.69028580  0.30848877  0.19275412    -0.17900
C766        C  0.68913504  0.34116168  0.22193582     0.04500
C767        C  0.68665401  0.37435393  0.19507567     0.18700
C768        C  0.68264238  0.37266362  0.14136219    -0.19300
C769        C  0.68682880  0.40828261  0.22203389    -0.20600
C770        C  0.68589421  0.40802359  0.27567260    -0.19100
C771        C  0.68538261  0.37414328  0.30304523     0.20100
C772        C  0.68918498  0.34145545  0.27668873     0.02200
C773        C  0.69220369  0.31012010  0.30638712    -0.13900
C774        C  0.68663678  0.30859021  0.35952234    -0.11600
C775        C  0.67585882  0.33669452  0.38439129     0.01700
C776        C  0.68008996  0.37213735  0.35663142    -0.23700
H777        H  0.68753268  0.28212152  0.11836683     0.09700
H778        H  0.69446101  0.28340678  0.20970921     0.13300
H779        H  0.68415131  0.39977674  0.12119307     0.12000
H780        H  0.68570419  0.43408715  0.20155065     0.13200
H781        H  0.68407862  0.43362680  0.29575470     0.12300
H782        H  0.69885750  0.28646270  0.28998279     0.09300
H783        H  0.69101862  0.28524572  0.38116133     0.12600
H784        H  0.67955610  0.39841388  0.37646614     0.14500
C785        C  0.83061544  0.16984394  0.88528326    -0.01000
C786        C  0.80053143  0.17722154  0.85991439    -0.09100
C787        C  0.80162786  0.18206336  0.80670315    -0.17900
C788        C  0.83427456  0.18158957  0.77733934     0.04500
C789        C  0.86825284  0.18079407  0.80396014     0.18700
C790        C  0.86674592  0.17640082  0.85757476    -0.19300
C791        C  0.90303187  0.18350535  0.77688112    -0.20600
C792        C  0.90308249  0.18363841  0.72325807    -0.19100
C793        C  0.86823095  0.18077988  0.69611520     0.20100
C794        C  0.83407141  0.18120723  0.72266069     0.02200
C795        C  0.80072922  0.18032287  0.69327019    -0.13900
C796        C  0.79955990  0.17519018  0.64009167    -0.11600
C797        C  0.83041100  0.16904192  0.61471615     0.01700
C798        C  0.86686671  0.17659272  0.64249691    -0.23700
H799        H  0.77643350  0.18031340  0.88118471     0.09700
H800        H  0.77660420  0.18625621  0.79002911     0.13300
H801        H  0.89407722  0.17856283  0.87755890     0.12000
H802        H  0.92954088  0.18395902  0.79720400     0.13200
H803        H  0.92963683  0.18419927  0.70297762     0.12300
H804        H  0.77498462  0.18327476  0.70992085     0.09300
H805        H  0.77476312  0.17709945  0.61882457     0.12600
H806        H  0.89464613  0.17984584  0.62261162     0.14500
C807        C  0.83055039  0.16640782  0.38994378    -0.01000
C808        C  0.82344756  0.12920706  0.36302755    -0.09100
C809        C  0.82241456  0.12718936  0.30849649    -0.17900
C810        C  0.82723496  0.16213312  0.27794523     0.04500
C811        C  0.83175102  0.19876370  0.30493741     0.18700
C812        C  0.83264724  0.20025635  0.35983322    -0.19300
C813        C  0.83516998  0.23382888  0.27693618    -0.20600
C814        C  0.83515782  0.23380964  0.22294057    -0.19100
C815        C  0.83182157  0.19876425  0.19492803     0.20100
C816        C  0.82731565  0.16215043  0.22188878     0.02200
C817        C  0.82267960  0.12726245  0.19130695    -0.13900
C818        C  0.82393100  0.12934328  0.13679393    -0.11600
C819        C  0.83111897  0.16657893  0.10996403     0.01700
C820        C  0.83287351  0.20029349  0.14005367    -0.23700
H821        H  0.81857361  0.10115081  0.38432161     0.09700
H822        H  0.81760607  0.09771827  0.29121352     0.13300
H823        H  0.83370730  0.22758731  0.37877545     0.12000
H824        H  0.83825943  0.26179696  0.29700603     0.13200
H825        H  0.83823414  0.26175656  0.20288727     0.12300
H826        H  0.81786687  0.09779419  0.20855194     0.09300
H827        H  0.81905617  0.10127789  0.11548467     0.12600
H828        H  0.83394831  0.22761119  0.12106055     0.14500
C829        C  0.83230434  0.66792807  0.04978031     0.30300
C830        C  0.82988515  0.66641681  0.94340927     0.30300
C831        C  0.85482526  0.64569415  0.02220330    -0.05900
C832        C  0.78732077  0.64470009  0.02413005    -0.06700
C833        C  0.85392871  0.71253297  0.02186905    -0.06600
C834        C  0.85218714  0.64417675  0.96817790    -0.05900
C835        C  0.78668607  0.64408400  0.97010821    -0.06700
C836        C  0.85176913  0.71046398  0.96800479    -0.06600
C837        C  0.86995256  0.62045347  0.95017884    -0.32000
N838        N  0.88611945  0.60986926  0.99089558     0.14500
C839        C  0.87740610  0.62496441  0.03506015    -0.32000
H840        H  0.88631828  0.62050592  0.07358216     0.16500
C841        C  0.74502470  0.62156868  0.95387020    -0.31000
N842        N  0.71993147  0.60940313  0.99601649     0.13200
C843        C  0.74492198  0.62274242  0.03929014    -0.31000
C844        C  0.87303109  0.75105806  0.94783601    -0.31200
N845        N  0.88901364  0.77871853  0.98749896     0.13800
H846        H  0.87732915  0.75991571  0.90732242     0.16400
C847        C  0.87839776  0.75624236  0.03284729    -0.31300
H848        H  0.88901718  0.77088032  0.07050482     0.16400
H849        H  0.73311455  0.61732615  0.07862393     0.16400
H850        H  0.87124915  0.61139890  0.91056059     0.16500
H851        H  0.73335053  0.61392194  0.91453767     0.16400
C852        C  0.83176159  0.66764565  0.45018246     0.30300
C853        C  0.82976114  0.66579808  0.55657467     0.30300
C854        C  0.85527798  0.64621538  0.47739442    -0.05900
C855        C  0.85261766  0.71211847  0.47843472    -0.06700
C856        C  0.78685240  0.64358772  0.47599113    -0.06600
C857        C  0.85333291  0.64507089  0.53147594    -0.05900
C858        C  0.85018557  0.70989340  0.53227594    -0.06700
C859        C  0.78657027  0.64212046  0.52997681    -0.06600
C860        C  0.87307301  0.62322995  0.54935512    -0.32000
N861        N  0.88905581  0.61275043  0.50847804     0.14500
C862        C  0.87850434  0.62617049  0.46426514    -0.32000
H863        H  0.88718795  0.62166573  0.42565166     0.16500
C864        C  0.86996108  0.75049221  0.55269697    -0.31000
N865        N  0.88603089  0.77825667  0.51321479     0.13200
C866        C  0.87663290  0.75586292  0.46781995    -0.31000
C867        C  0.74518965  0.61797011  0.54646194    -0.31200
N868        N  0.71967521  0.60683265  0.50468945     0.13800
H869        H  0.73400068  0.60927777  0.58581541     0.16400
C870        C  0.74427060  0.62191039  0.46126507    -0.31300
H871        H  0.73209392  0.61721072  0.42210185     0.16400
H872        H  0.88740435  0.77069677  0.43033122     0.16400
H873        H  0.87530517  0.61474751  0.58894594     0.16500
H874        H  0.87353222  0.75927977  0.59323482     0.16400
C875        C  0.67008252  0.83343954  0.05607595     0.30300
C876        C  0.66532383  0.83078851  0.94964146     0.30300
C877        C  0.64641972  0.85457850  0.03209342    -0.05900
C878        C  0.71204698  0.85424900  0.02773411    -0.06700
C879        C  0.64634287  0.78863715  0.03246577    -0.06600
C880        C  0.64367909  0.85359275  0.97798825    -0.05900
C881        C  0.71067777  0.85377569  0.97398117    -0.06700
C882        C  0.64367914  0.78627174  0.97833332    -0.06600
C883        C  0.62018526  0.87352800  0.96590710    -0.32000
N884        N  0.60950916  0.88606442  0.01072704     0.14500
C885        C  0.62450951  0.87389776  0.05109409    -0.32000
H886        H  0.61876079  0.87818502  0.09113769     0.16500
C887        C  0.75303961  0.87539402  0.95836530    -0.31000
N888        N  0.77833919  0.88767560  0.00147630     0.13200
C889        C  0.75356591  0.87475612  0.04380265    -0.31000
C890        C  0.61833736  0.74260517  0.96759595    -0.31200
N891        N  0.60692124  0.72024232  0.01296578     0.13800
H892        H  0.60751773  0.72780838  0.93007365     0.16400
C893        C  0.62286682  0.74800953  0.05259648    -0.31300
H894        H  0.61710972  0.73894905  0.09295650     0.16400
H895        H  0.76507401  0.88012075  0.08333287     0.16400
H896        H  0.61163671  0.87879648  0.92755485     0.16500
H897        H  0.76458464  0.88126793  0.91891318     0.16400
C898        C  0.66949193  0.83394681  0.44225705     0.30300
C899        C  0.66545468  0.83095462  0.54866675     0.30300
C900        C  0.64434875  0.85340019  0.46673414    -0.05900
C901        C  0.64757669  0.78906391  0.46572058    -0.06700
C902        C  0.71164106  0.85633603  0.47034609    -0.06600
C903        C  0.64256856  0.85270502  0.52089731    -0.05900
C904        C  0.64472752  0.78660247  0.51979904    -0.06700
C905        C  0.71060060  0.85494782  0.52407995    -0.06600
C906        C  0.61861708  0.87187636  0.53394530    -0.32000
N907        N  0.60578971  0.88289315  0.48967352     0.14500
C908        C  0.62035877  0.87084572  0.44860994    -0.32000
H909        H  0.61370212  0.87465153  0.40875183     0.16500
C910        C  0.61977941  0.74294827  0.53038247    -0.31000
N911        N  0.60975624  0.72054134  0.48505580     0.13200
C912        C  0.62575143  0.74827757  0.44548398    -0.31000
C913        C  0.75300812  0.87646480  0.53950066    -0.31200
N914        N  0.77805726  0.89068013  0.49633250     0.13800
H915        H  0.76476076  0.88164975  0.57888733     0.16400
C916        C  0.75306673  0.87873416  0.45410631    -0.31300
H917        H  0.76436846  0.88541483  0.41454832     0.16400
H918        H  0.62057179  0.73910389  0.40509922     0.16400
H919        H  0.61067841  0.87713367  0.57262754     0.16500
H920        H  0.60860743  0.72811195  0.56776789     0.16400
O921        O  0.94495898  0.51898734  0.03616970    -0.88100
C922        C  0.93486148  0.93789074  0.91677901     0.87900
Mg923      Mg  0.99400474  0.58583084  0.03698154     1.58100
O924        O  0.97768245  0.92464155  0.03393238    -0.88200
O925        O  0.92009627  0.96097431  0.08297166    -0.75100
C926        C  0.67444370  0.58767890  0.99413897     0.93000
O927        O  0.96670690  0.54497415  0.91363031    -0.75000
O928        O  0.65592059  0.60862520  0.98126689    -0.82500
Mg929      Mg  0.90985012  0.99767624  0.96258298     1.58000
C930        C  0.58768006  0.91001946  0.01515154     0.92900
O931        O  0.84427197  0.94935207  0.99313274    -0.80700
H932        H  0.97160312  0.90780630  0.10849825    -0.06100
C933        C  0.56526170  0.49590445  0.92314569     0.87900
O934        O  0.53874568  0.57429388  0.08983794    -0.75200
O935        O  0.92860112  0.94906396  0.95948655    -0.88000
O936        O  0.54826369  0.89148799  0.00394171    -0.80800
C937        C  0.91365988  0.82417946  0.98164949     0.93000
C938        C  0.82375280  0.90950189  0.00345111     0.92900
Mg939      Mg  0.58857380  0.50023465  0.03788283     1.58000
O940        O  0.65391708  0.54816575  0.00623931    -0.80700
O941        O  0.53123871  0.95357324  0.08726536    -0.75000
O942        O  0.89481424  0.84611442  0.98298590    -0.80800
O943        O  0.88900132  0.54785069  0.97074045    -0.82500
O944        O  0.60311375  0.65364624  0.01136348    -0.80800
C945        C  0.49236488  0.92740656  0.07767428     0.87300
O946        O  0.57066354  0.54965186  0.04072115    -0.88000
O947        O  0.55324623  0.97791805  0.96536235    -0.88100
O948        O  0.57647774  0.53522660  0.91761122    -0.75200
Mg949      Mg  0.91149010  0.90752859  0.02690090     1.58000
O950        O  0.95362979  0.84151660  0.97494277    -0.82500
H951        H  0.93179931  0.51864991  0.11136099    -0.06300
O952        O  0.51992866  0.57327166  0.96730299    -0.87800
H953        H  0.52613843  0.59169496  0.89335795    -0.06100
H954        H  0.58337171  0.56018240  0.11631697    -0.06300
C955        C  0.00536151  0.57134105  0.92371677     0.87300
C956        C  0.93199978  0.00052282  0.07800623     0.87900
C957        C  0.56542704  0.56145568  0.08350468     0.87900
H958        H  0.56506360  0.97747344  0.88990176    -0.06200
O959        O  0.96099910  0.92421611  0.91133808    -0.75300
Mg960      Mg  0.58614449  0.58995928  0.97207199     1.58000
H961        H  0.91814509  0.94023815  0.88330588    -0.06200
C962        C  0.90843931  0.58628612  0.98756676     0.92900
O963        O  0.54394970  0.65619948  0.02884626    -0.82500
C964        C  0.58354503  0.67458114  0.01840997     0.93000
O965        O  0.84223317  0.88850505  0.01582053    -0.82500
Mg966      Mg  0.50394006  0.91129969  0.96585739     1.58200
O967        O  0.94675104  0.60408500  0.00359062    -0.80800
O968        O  0.60848234  0.94936498  0.02855497    -0.82500
O969        O  0.97721611  0.55181212  0.46312817    -0.88100
C970        C  0.56454494  0.56957316  0.57590181     0.87900
Mg971      Mg  0.91118367  0.50329525  0.46941896     1.58100
O972        O  0.57048552  0.51782512  0.46122971    -0.87800
O973        O  0.53135614  0.57374495  0.41103799    -0.75100
C974        C  0.90896692  0.82381631  0.51875872     0.93000
O975        O  0.96015125  0.53893320  0.58671914    -0.75000
O976        O  0.88881585  0.84311651  0.53153258    -0.82500
Mg977      Mg  0.50337272  0.59259124  0.53031440     1.58000
C978        C  0.58266928  0.90570277  0.48672442     0.92900
O979        O  0.54750072  0.65459222  0.48831478    -0.80700
H980        H  0.58177343  0.51850681  0.38544636    -0.06100
C981        C  0.00467298  0.93541395  0.58090381     0.87900
O982        O  0.92060991  0.95686351  0.41745602    -0.75200
O983        O  0.55223555  0.57410770  0.53310953    -0.88000
O984        O  0.60194379  0.94541822  0.49854935    -0.80800
C985        C  0.67417642  0.58362959  0.50723797     0.93000
C986        C  0.58739504  0.67488915  0.47990442     0.92900
Mg987      Mg  0.99342501  0.90643564  0.46863958     1.58000
O988        O  0.94860652  0.84372893  0.50869839    -0.80700
O989        O  0.53685327  0.96062711  0.41335790    -0.75000
O990        O  0.65381329  0.60269220  0.49428613    -0.80800
O991        O  0.95293523  0.61257173  0.52092527    -0.82500
O992        O  0.84409591  0.89591132  0.50793618    -0.80800
C993        C  0.56427488  0.99998415  0.41881514     0.87300
O994        O  0.94500210  0.92516067  0.46758105    -0.88000
O995        O  0.51977153  0.94636728  0.53721006    -0.88100
O996        O  0.96607107  0.92417966  0.58990356    -0.75200
Mg997      Mg  0.58834439  0.58511861  0.46174900     1.58000
O998        O  0.65547322  0.54463863  0.52185515    -0.82500
H999        H  0.97237059  0.56055995  0.38757755    -0.06300
O1000       O  0.92747455  0.98092007  0.53998439    -0.87800
H1001       H  0.91616684  0.98100913  0.61569349    -0.06100
H1002       H  0.93264310  0.91019723  0.39267637    -0.06300
C1003       C  0.93344539  0.49924439  0.58205548     0.87300
C1004       C  0.49256120  0.56219365  0.41944166     0.87900
C1005       C  0.93244866  0.92942410  0.42481977     0.87900
H1006       H  0.52498116  0.93644671  0.61230433    -0.06200
O1007       O  0.57636771  0.54207168  0.58311482    -0.75300
Mg1008     Mg  0.90935334  0.91365716  0.53955725     1.58000
H1009       H  0.56436331  0.58873995  0.60812175    -0.06200
C1010       C  0.91304315  0.59093346  0.51221137     0.92900
O1011       O  0.84178010  0.95330855  0.47959641    -0.82500
C1012       C  0.82345048  0.91442784  0.49441440     0.93000
O1013       O  0.60827521  0.65584921  0.46927972    -0.82500
Mg1014     Mg  0.58575859  0.99481234  0.53208578     1.58200
O1015       O  0.89371640  0.55040247  0.50625520    -0.80800
O1016       O  0.54333854  0.88545230  0.47460957    -0.82500
C1017       C  0.66540179  0.83173410  0.88930934    -0.01000
C1018       C  0.67382524  0.86937651  0.86245911    -0.09100
C1019       C  0.67470231  0.87134779  0.80786486    -0.17900
C1020       C  0.66807783  0.83576572  0.77716385     0.04500
C1021       C  0.66176236  0.79845170  0.80407315     0.18700
C1022       C  0.66138227  0.79714123  0.85896742    -0.19300
C1023       C  0.65621742  0.76254126  0.77601338    -0.20600
C1024       C  0.65639814  0.76260902  0.72203597    -0.19100
C1025       C  0.66203149  0.79855239  0.69406582     0.20100
C1026       C  0.66812313  0.83578473  0.72106046     0.02200
C1027       C  0.67453015  0.87129758  0.69045561    -0.13900
C1028       C  0.67382821  0.86938927  0.63587694    -0.11600
C1029       C  0.66576983  0.83186920  0.60894982     0.01700
C1030       C  0.66187453  0.79732364  0.63918582    -0.23700
H1031       H  0.68002462  0.89785055  0.88388547     0.09700
H1032       H  0.68089595  0.90129116  0.79062895     0.13300
H1033       H  0.65950385  0.76939683  0.87766963     0.12000
H1034       H  0.65150169  0.73394614  0.79602779     0.13200
H1035       H  0.65181807  0.73406586  0.70195301     0.12300
H1036       H  0.68029812  0.90109791  0.70775903     0.09300
H1037       H  0.67978549  0.89779190  0.61451670     0.12600
H1038       H  0.66025180  0.76969064  0.62046341     0.14500
C1039       C  0.67662335  0.83632524  0.11397740    -0.01000
C1040       C  0.68494652  0.80677065  0.13951542    -0.09100
C1041       C  0.69028577  0.80848889  0.19275402    -0.17900
C1042       C  0.68913502  0.84116162  0.22193583     0.04500
C1043       C  0.68665400  0.87435394  0.19507569     0.18700
C1044       C  0.68264240  0.87266373  0.14136210    -0.19300
C1045       C  0.68682884  0.90828244  0.22203409    -0.20600
C1046       C  0.68589428  0.90802350  0.27567273    -0.19100
C1047       C  0.68538270  0.87414320  0.30304530     0.20100
C1048       C  0.68918508  0.84145547  0.27668876     0.02200
C1049       C  0.69220379  0.81012002  0.30638706    -0.13900
C1050       C  0.68663675  0.80859027  0.35952224    -0.11600
C1051       C  0.67585875  0.83669445  0.38439127     0.01700
C1052       C  0.68009004  0.87213737  0.35663147    -0.23700
H1053       H  0.68753251  0.78212161  0.11836703     0.09700
H1054       H  0.69446104  0.78340658  0.20970932     0.13300
H1055       H  0.68415131  0.89977671  0.12119310     0.12000
H1056       H  0.68570425  0.93408729  0.20155081     0.13200
H1057       H  0.68407863  0.93362657  0.29575484     0.12300
H1058       H  0.69885759  0.78646289  0.28998285     0.09300
H1059       H  0.69101867  0.78524555  0.38116147     0.12600
H1060       H  0.67955628  0.89841389  0.37646617     0.14500
C1061       C  0.83061543  0.66984388  0.88528326    -0.01000
C1062       C  0.80053149  0.67722161  0.85991439    -0.09100
C1063       C  0.80162795  0.68206346  0.80670319    -0.17900
C1064       C  0.83427455  0.68158953  0.77733933     0.04500
C1065       C  0.86825280  0.68079400  0.80396013     0.18700
C1066       C  0.86674587  0.67640070  0.85757475    -0.19300
C1067       C  0.90303187  0.68350539  0.77688111    -0.20600
C1068       C  0.90308252  0.68363851  0.72325807    -0.19100
C1069       C  0.86823097  0.68077993  0.69611519     0.20100
C1070       C  0.83407138  0.68120719  0.72266069     0.02200
C1071       C  0.80072920  0.68032280  0.69327016    -0.13900
C1072       C  0.79955989  0.67519020  0.64009164    -0.11600
C1073       C  0.83041103  0.66904197  0.61471613     0.01700
C1074       C  0.86686674  0.67659278  0.64249690    -0.23700
H1075       H  0.77643347  0.68031336  0.88118470     0.09700
H1076       H  0.77660415  0.68625618  0.79002907     0.13300
H1077       H  0.89407718  0.67856275  0.87755887     0.12000
H1078       H  0.92954083  0.68395896  0.79720398     0.13200
H1079       H  0.92963684  0.68419931  0.70297762     0.12300
H1080       H  0.77498446  0.68327459  0.70992092     0.09300
H1081       H  0.77476312  0.67709941  0.61882457     0.12600
H1082       H  0.89464620  0.67984595  0.62261163     0.14500
C1083       C  0.83055041  0.66640788  0.38994379    -0.01000
C1084       C  0.82344751  0.62920721  0.36302744    -0.09100
C1085       C  0.82241445  0.62718929  0.30849649    -0.17900
C1086       C  0.82723493  0.66213295  0.27794521     0.04500
C1087       C  0.83175105  0.69876358  0.30493739     0.18700
C1088       C  0.83264728  0.70025637  0.35983319    -0.19300
C1089       C  0.83516998  0.73382853  0.27693606    -0.20600
C1090       C  0.83515781  0.73380946  0.22294054    -0.19100
C1091       C  0.83182152  0.69876402  0.19492806     0.20100
C1092       C  0.82731564  0.66215035  0.22188879     0.02200
C1093       C  0.82267955  0.62726220  0.19130716    -0.13900
C1094       C  0.82393103  0.62934342  0.13679417    -0.11600
C1095       C  0.83111890  0.66657885  0.10996412     0.01700
C1096       C  0.83287347  0.70029362  0.14005360    -0.23700
H1097       H  0.81857349  0.60115070  0.38432172     0.09700
H1098       H  0.81760600  0.59771824  0.29121372     0.13300
H1099       H  0.83370730  0.72758739  0.37877535     0.12000
H1100       H  0.83825944  0.76179698  0.29700602     0.13200
H1101       H  0.83823407  0.76175607  0.20288752     0.12300
H1102       H  0.81786693  0.59779454  0.20855178     0.09300
H1103       H  0.81905614  0.60127752  0.11548463     0.12600
H1104       H  0.83394828  0.72761070  0.12106098     0.14500
loop_ 
_geom_bond_atom_site_label_1 
_geom_bond_atom_site_label_2 
_geom_bond_distance 
_geom_bond_site_symmetry_2 
_ccdc_geom_bond_type 
C1            C3   1.564       .  S
C1            C5   1.565       .  S
C1            C4   1.557       .  S
C1          C267   1.556       .  S
C2            C6   1.526       .  S
C2            C8   1.510       .  S
C2            C7   1.520       .  S
C2          C233   1.506       .  S
C3           C11   1.388       .  A
C3            C6   1.398   1_554  A
C4           C15   1.386       .  A
C4            C7   1.396   1_554  A
C5           C19   1.393       .  A
C5            C8   1.394   1_554  A
C6            C9   1.375       .  A
C7           C13   1.372       .  A
C8           C16   1.368       .  A
C9           N10   1.346       .  A
C9           H22   1.082       .  S
N10          C11   1.365   1_556  A
N10         C134   1.431       .  S
C11          H12   1.082       .  S
C13          N14   1.344       .  A
C13          H23   1.082       .  S
N14          C15   1.365   1_556  A
N14          C98   1.426       .  S
C15          H21   1.082       .  S
C16          N17   1.340       .  A
C16          H18   1.083       .  S
N17          C19   1.365   1_556  A
N17         C109   1.425       .  S
C19          H20   1.081       .  S
C24          C26   1.566       .  S
C24          C28   1.559       .  S
C24          C27   1.564       .  S
C24         C255   1.557       .  S
C25          C29   1.524       .  S
C25          C31   1.519       .  S
C25          C30   1.510       .  S
C25         C245   1.506       .  S
C26          C34   1.390       .  A
C26          C29   1.399       .  A
C27          C38   1.392       .  A
C27          C30   1.394       .  A
C28          C42   1.387       .  A
C28          C31   1.396       .  A
C29          C32   1.374       .  A
C30          C36   1.369       .  A
C31          C39   1.371       .  A
C32          N33   1.344       .  A
C32          H45   1.082       .  S
N33          C34   1.365       .  A
N33         C182   1.429       .  S
C34          H35   1.082       .  S
C36          N37   1.341       .  A
C36          H46   1.083       .  S
N37          C38   1.365       .  A
N37         C146   1.425       .  S
C38          H44   1.081       .  S
C39          N40   1.344       .  A
C39          H41   1.082       .  S
N40          C42   1.366       .  A
N40         C157   1.427       .  S
C42          H43   1.082       .  S
C47          C49   1.526       .  S
C47          C51   1.522       .  S
C47          C50   1.506       .  S
C47         C211   1.510       .  S
C48          C52   1.565       .  S
C48          C54   1.572       .  S
C48          C53   1.553       .  S
C48         C189   1.559       .  S
C49          C57   1.375       .  A
C49          C52   1.401   1_554  A
C50          C61   1.365       .  A
C50          C53   1.390   1_554  A
C51          C65   1.373       .  A
C51          C54   1.402   1_554  A
C52          C55   1.389       .  A
C53          C59   1.388       .  A
C54          C62   1.393       .  A
C55          N56   1.365   1_556  A
C55          H68   1.082       .  S
N56          C57   1.344       .  A
N56         C102   1.429       .  S
C57          H58   1.081       .  S
C59          N60   1.367   1_556  A
C59          H69   1.082       .  S
N60          C61   1.342       .  A
N60         C110   1.424       .  S
C61          H67   1.083       .  S
C62          N63   1.364   1_556  A
C62          H64   1.080       .  S
N63          C65   1.342       .  A
N63         C136   1.428       .  S
C65          H66   1.082       .  S
C70          C72   1.529       .  S
C70          C74   1.507       .  S
C70          C73   1.523       .  S
C70         C223   1.509       .  S
C71          C75   1.563       .  S
C71          C77   1.552       .  S
C71          C76   1.569       .  S
C71         C201   1.558       .  S
C72          C80   1.377       .  A
C72          C75   1.401       .  A
C73          C84   1.374       .  A
C73          C76   1.401       .  A
C74          C88   1.366       .  A
C74          C77   1.389       .  A
C75          C78   1.387       .  A
C76          C82   1.392       .  A
C77          C85   1.387       .  A
C78          N79   1.364       .  A
C78          H91   1.082       .  S
N79          C80   1.347       .  A
N79         C150   1.431       .  S
C80          H81   1.081       .  S
C82          N83   1.363       .  A
C82          H92   1.080       .  S
N83          C84   1.342       .  A
N83         C158   1.427       .  S
C84          H90   1.082       .  S
C85          N86   1.366       .  A
C85          H87   1.082       .  S
N86          C88   1.342       .  A
N86         C184   1.424       .  S
C88          H89   1.083       .  S
O93         Mg95   2.160       .  S
O93        Mg377   2.200   1_544  S
O93         C404   1.233       .  S
C94         H133   1.081       .  S
C94         O107   1.233       .  S
C94         O131   1.268       .  A
Mg95        O676   2.177   1_554  S
Mg95        O139   2.277       .  S
Mg95        O687   2.268       .  S
Mg95        O658   2.303       .  S
O96        Mg121   2.159       .  S
O96        Mg690   2.162   1_554  S
O96         C669   1.231       .  S
O97         C128   1.267       .  A
O97        Mg121   2.296       .  S
C98         O100   1.272       .  A
C98         O112   1.270   1_556  A
O99         C127   1.264       .  A
O99        Mg377   2.289   1_545  S
O100       Mg132   2.274       .  S
Mg101       O107   2.161       .  S
Mg101       O369   2.200   1_556  S
Mg101       O103   2.272       .  S
Mg101       O375   2.289       .  S
Mg101       O391   2.278       .  S
C102        O140   1.273       .  A
C102        O108   1.269       .  A
O103        C110   1.269   1_556  A
H104        C669   1.081       .  S
C105        H406   1.081       .  S
C105        O395   1.232       .  S
C105        O120   1.267   1_565  A
O106        C129   1.267       .  A
O106       Mg647   2.303   1_455  S
O107       Mg121   2.174   1_556  S
O108       Mg138   2.271   1_554  S
C109        O122   1.268       .  A
C109        O114   1.270       .  A
C110        O137   1.269       .  A
Mg111       O118   2.167       .  S
Mg111       O395   2.182   1_544  S
Mg111       O112   2.273       .  S
Mg111       O389   2.298   1_545  S
Mg111       O416   2.280   1_545  S
O113        C117   1.266   1_455  A
O113       Mg387   2.298       .  S
O114       Mg121   2.275   1_556  S
O115        C134   1.272       .  A
O115       Mg377   2.278   1_545  S
O116        C136   1.273       .  A
O116       Mg132   2.286   1_554  S
C117        H656   1.081       .  S
C117        O648   1.231       .  S
O118       Mg132   2.179   1_554  S
O118        C129   1.231       .  S
O119       Mg138   2.157       .  S
O119       Mg387   2.182   1_556  S
O119        C381   1.232       .  S
O120       Mg132   2.295       .  S
Mg121       O137   2.259       .  S
O122       Mg690   2.259       .  S
H123        C404   1.081       .  S
O124       Mg132   2.160       .  S
O124       Mg647   2.177   1_456  S
O124        C679   1.230       .  S
H125        C679   1.081       .  S
H126        C129   1.081       .  S
C127        H677   1.081       .  S
C127        O676   1.230       .  S
C128        H399   1.081       .  S
C128        O369   1.233       .  S
H130        C381   1.081       .  S
O131       Mg690   2.304       .  S
C134        O139   1.270   1_556  A
O135        C136   1.271       .  A
O135       Mg647   2.268   1_455  S
Mg138       O648   2.162   1_456  S
Mg138       O674   2.259   1_455  S
Mg138       O683   2.304   1_455  S
O140       Mg387   2.280       .  S
O141       Mg143   2.149       .  S
O141       Mg701   2.160       .  S
O141        C728   1.232       .  S
C142        H181   1.081       .  S
C142        O155   1.232       .  S
C142        O179   1.267       .  A
Mg143       O448   2.187   1_545  S
Mg143       O187   2.282       .  S
Mg143       O459   2.258   1_545  S
Mg143       O430   2.291   1_545  S
O144       Mg169   2.166       .  S
O144       Mg462   2.188   1_545  S
O144        C441   1.232   1_545  S
O145        C176   1.267   1_455  A
O145       Mg169   2.297       .  S
C146        O148   1.271       .  A
C146        O160   1.269       .  A
O147        C175   1.267   1_545  A
O147       Mg701   2.299       .  S
O148       Mg180   2.264       .  S
Mg149       O155   2.171       .  S
Mg149       O693   2.160   1_455  S
Mg149       O151   2.268       .  S
Mg149       O699   2.299   1_455  S
Mg149       O715   2.276   1_455  S
C150        O188   1.271       .  A
C150        O156   1.273       .  A
O151        C158   1.269       .  A
H152        C441   1.081   1_545  S
C153        H730   1.081       .  S
C153        O719   1.231       .  S
C153        O168   1.265       .  A
O154        C177   1.266       .  A
O154       Mg419   2.291       .  S
O155       Mg169   2.179       .  S
O156       Mg186   2.292       .  S
C157        O170   1.271       .  A
C157        O162   1.272       .  A
C158        O185   1.273       .  A
Mg159       O166   2.161       .  S
Mg159       O719   2.176       .  S
Mg159       O160   2.266       .  S
Mg159       O713   2.292       .  S
Mg159       O740   2.276       .  S
O161        C165   1.266       .  A
O161       Mg711   2.292   1_455  S
O162       Mg169   2.282       .  S
O163        C182   1.271       .  A
O163       Mg701   2.276       .  S
O164        C184   1.268       .  A
O164       Mg180   2.265       .  S
C165        H428   1.081       .  S
C165        O420   1.232       .  S
O166       Mg180   2.182       .  S
O166        C177   1.232       .  S
O167       Mg186   2.145       .  S
O167       Mg711   2.176   1_455  S
O167        C705   1.231       .  S
O168       Mg180   2.292       .  S
Mg169       O185   2.274       .  S
O170       Mg462   2.265   1_545  S
H171        C728   1.081       .  S
O172       Mg180   2.162       .  S
O172       Mg419   2.187       .  S
O172        C451   1.232       .  S
H173        C451   1.081       .  S
H174        C177   1.081       .  S
C175        H449   1.081       .  S
C175        O448   1.232       .  S
C176        H723   1.081       .  S
C176        O693   1.232       .  S
H178        C705   1.081       .  S
O179       Mg462   2.300   1_545  S
C182        O187   1.271       .  A
O183        C184   1.270       .  A
O183       Mg419   2.258       .  S
Mg186       O420   2.188       .  S
Mg186       O446   2.265       .  S
Mg186       O455   2.300       .  S
O188       Mg711   2.276   1_455  S
C189        C190   1.410       .  A
C189        C194   1.412       .  A
C190        C191   1.412       .  A
C190        H203   1.082       .  S
C191        C192   1.417       .  A
C191        H204   1.078       .  S
C192        C198   1.450       .  A
C192        C193   1.422       .  A
C193        C195   1.402       .  A
C193        C194   1.419       .  A
C194        H205   1.077       .  S
C195        C196   1.395       .  A
C195        H206   1.084       .  S
C196        C197   1.402       .  A
C196        H207   1.084       .  S
C197        C198   1.422       .  A
C197        C202   1.419       .  A
C198        C199   1.417       .  A
C199        C200   1.412       .  A
C199        H208   1.078       .  S
C200        C201   1.410       .  A
C200        H209   1.082       .  S
C201        C202   1.411       .  A
C202        H210   1.077       .  S
C211        C212   1.401       .  A
C211        C216   1.401       .  A
C212        C213   1.386       .  A
C212        H225   1.081       .  S
C213        C214   1.410       .  A
C213        H226   1.076       .  S
C214        C220   1.415       .  A
C214        C215   1.418       .  A
C215        C217   1.398       .  A
C215        C216   1.394       .  A
C216        H227   1.080       .  S
C217        C218   1.386       .  A
C217        H228   1.084       .  S
C218        C219   1.398       .  A
C218        H229   1.084       .  S
C219        C220   1.419       .  A
C219        C224   1.395       .  A
C220        C221   1.409       .  A
C221        C222   1.385       .  A
C221        H230   1.076       .  S
C222        C223   1.403       .  A
C222        H231   1.081       .  S
C223        C224   1.400       .  A
C224        H232   1.081       .  S
C233        C234   1.401       .  A
C233        C238   1.402       .  A
C234        C235   1.384       .  A
C234        H247   1.080       .  S
C235        C236   1.409       .  A
C235        H248   1.076       .  S
C236        C242   1.413       .  A
C236        C237   1.418       .  A
C237        C239   1.398       .  A
C237        C238   1.393       .  A
C238        H249   1.081       .  S
C239        C240   1.386       .  A
C239        H250   1.084       .  S
C240        C241   1.398       .  A
C240        H251   1.084       .  S
C241        C242   1.418       .  A
C241        C246   1.392       .  A
C242        C243   1.409       .  A
C243        C244   1.384       .  A
C243        H252   1.076       .  S
C244        C245   1.401       .  A
C244        H253   1.081       .  S
C245        C246   1.402       .  A
C246        H254   1.081       .  S
C255        C256   1.410       .  A
C255        C260   1.412       .  A
C256        C257   1.410       .  A
C256        H269   1.082       .  S
C257        C258   1.417       .  A
C257        H270   1.078       .  S
C258        C264   1.449       .  A
C258        C259   1.422       .  A
C259        C261   1.402       .  A
C259        C260   1.419       .  A
C260        H271   1.078       .  S
C261        C262   1.395       .  A
C261        H272   1.084       .  S
C262        C263   1.402       .  A
C262        H273   1.084       .  S
C263        C264   1.422       .  A
C263        C268   1.419       .  A
C264        C265   1.417       .  A
C265        C266   1.410       .  A
C265        H274   1.078       .  S
C266        C267   1.410       .  A
C266        H275   1.081       .  S
C267        C268   1.411       .  A
C268        H276   1.079       .  S
C277        C279   1.564       .  S
C277        C281   1.565       .  S
C277        C280   1.557       .  S
C277        C543   1.556       .  S
C278        C282   1.526       .  S
C278        C284   1.510       .  S
C278        C283   1.520       .  S
C278        C509   1.506       .  S
C279        C287   1.388       .  A
C279        C282   1.398   1_554  A
C280        C291   1.386       .  A
C280        C283   1.396   1_554  A
C281        C295   1.393       .  A
C281        C284   1.394   1_554  A
C282        C285   1.375       .  A
C283        C289   1.372       .  A
C284        C292   1.368       .  A
C285        N286   1.346       .  A
C285        H298   1.082       .  S
N286        C287   1.365   1_556  A
N286        C410   1.431       .  S
C287        H288   1.082       .  S
C289        N290   1.344       .  A
C289        H299   1.082       .  S
N290        C291   1.365   1_556  A
N290        C374   1.426       .  S
C291        H297   1.082       .  S
C292        N293   1.340       .  A
C292        H294   1.083       .  S
N293        C295   1.365   1_556  A
N293        C385   1.425       .  S
C295        H296   1.081       .  S
C300        C302   1.566       .  S
C300        C304   1.559       .  S
C300        C303   1.564       .  S
C300        C531   1.557       .  S
C301        C305   1.524       .  S
C301        C307   1.519       .  S
C301        C306   1.510       .  S
C301        C521   1.506       .  S
C302        C310   1.390       .  A
C302        C305   1.399       .  A
C303        C314   1.392       .  A
C303        C306   1.394       .  A
C304        C318   1.387       .  A
C304        C307   1.396       .  A
C305        C308   1.374       .  A
C306        C312   1.369       .  A
C307        C315   1.371       .  A
C308        N309   1.344       .  A
C308        H321   1.082       .  S
N309        C310   1.365       .  A
N309        C458   1.429       .  S
C310        H311   1.082       .  S
C312        N313   1.341       .  A
C312        H322   1.083       .  S
N313        C314   1.365       .  A
N313        C422   1.425       .  S
C314        H320   1.081       .  S
C315        N316   1.344       .  A
C315        H317   1.082       .  S
N316        C318   1.366       .  A
N316        C433   1.427       .  S
C318        H319   1.082       .  S
C323        C325   1.526       .  S
C323        C327   1.522       .  S
C323        C326   1.506       .  S
C323        C487   1.510       .  S
C324        C328   1.565       .  S
C324        C330   1.572       .  S
C324        C329   1.553       .  S
C324        C465   1.559       .  S
C325        C333   1.375       .  A
C325        C328   1.401   1_554  A
C326        C337   1.365       .  A
C326        C329   1.390   1_554  A
C327        C341   1.373       .  A
C327        C330   1.402   1_554  A
C328        C331   1.389       .  A
C329        C335   1.388       .  A
C330        C338   1.393       .  A
C331        N332   1.365   1_556  A
C331        H344   1.082       .  S
N332        C333   1.344       .  A
N332        C378   1.429       .  S
C333        H334   1.081       .  S
C335        N336   1.367   1_556  A
C335        H345   1.082       .  S
N336        C337   1.342       .  A
N336        C386   1.424       .  S
C337        H343   1.083       .  S
C338        N339   1.364   1_556  A
C338        H340   1.080       .  S
N339        C341   1.342       .  A
N339        C412   1.428       .  S
C341        H342   1.082       .  S
C346        C348   1.529       .  S
C346        C350   1.507       .  S
C346        C349   1.523       .  S
C346        C499   1.509       .  S
C347        C351   1.563       .  S
C347        C353   1.552       .  S
C347        C352   1.569       .  S
C347        C477   1.558       .  S
C348        C356   1.377       .  A
C348        C351   1.401       .  A
C349        C360   1.374       .  A
C349        C352   1.401       .  A
C350        C364   1.366       .  A
C350        C353   1.389       .  A
C351        C354   1.387       .  A
C352        C358   1.392       .  A
C353        C361   1.387       .  A
C354        N355   1.364       .  A
C354        H367   1.082       .  S
N355        C356   1.347       .  A
N355        C426   1.431       .  S
C356        H357   1.081       .  S
C358        N359   1.363       .  A
C358        H368   1.080       .  S
N359        C360   1.342       .  A
N359        C434   1.427       .  S
C360        H366   1.082       .  S
C361        N362   1.366       .  A
C361        H363   1.082       .  S
N362        C364   1.342       .  A
N362        C460   1.424       .  S
C364        H365   1.083       .  S
O369       Mg371   2.160       .  S
C370        H409   1.081       .  S
C370        O383   1.233       .  S
C370        O407   1.268       .  A
Mg371       O952   2.177   1_554  S
Mg371       O415   2.277       .  S
Mg371       O963   2.268       .  S
Mg371       O934   2.303       .  S
O372       Mg966   2.162   1_554  S
O372       Mg397   2.159       .  S
O372        C945   1.231       .  S
O373        C404   1.267   1_565  A
O373       Mg397   2.296       .  S
C374        O376   1.272       .  A
C374        O388   1.270   1_556  A
O375        C403   1.264       .  A
O376       Mg408   2.274       .  S
Mg377       O383   2.161       .  S
Mg377       O379   2.272       .  S
C378        O416   1.273       .  A
C378        O384   1.269       .  A
O379        C386   1.269   1_556  A
H380        C945   1.081       .  S
C381        O396   1.267       .  A
O382        C405   1.267       .  A
O382       Mg923   2.303   1_455  S
O383       Mg397   2.174   1_556  S
O384       Mg414   2.271   1_554  S
C385        O398   1.268       .  A
C385        O390   1.270       .  A
C386        O413   1.269       .  A
Mg387       O394   2.167       .  S
Mg387       O388   2.273       .  S
O389        C393   1.266   1_455  A
O390       Mg397   2.275   1_556  S
O391        C410   1.272       .  A
O392        C412   1.273       .  A
O392       Mg408   2.286   1_554  S
C393        H932   1.081       .  S
C393        O924   1.231       .  S
O394       Mg408   2.179   1_554  S
O394        C405   1.231       .  S
O395       Mg414   2.157       .  S
O396       Mg408   2.295       .  S
Mg397       O413   2.259       .  S
O398       Mg966   2.259       .  S
O400       Mg923   2.177   1_456  S
O400       Mg408   2.160       .  S
O400        C955   1.230       .  S
H401        C955   1.081       .  S
H402        C405   1.081       .  S
C403        H953   1.081       .  S
C403        O952   1.230       .  S
O407       Mg966   2.304       .  S
C410        O415   1.270   1_556  A
O411        C412   1.271       .  A
O411       Mg923   2.268   1_455  S
Mg414       O924   2.162   1_456  S
Mg414       O950   2.259   1_455  S
Mg414       O959   2.304   1_455  S
O417       Mg419   2.149       .  S
O417       Mg977   2.160       .  S
O417       C1004   1.232       .  S
C418        H457   1.081       .  S
C418        O431   1.232       .  S
C418        O455   1.267       .  A
Mg419       O463   2.282       .  S
O420       Mg445   2.166       .  S
O421        C452   1.267   1_455  A
O421       Mg445   2.297       .  S
C422        O424   1.271       .  A
C422        O436   1.269       .  A
O423        C451   1.267       .  A
O423       Mg977   2.299       .  S
O424       Mg456   2.264       .  S
Mg425       O969   2.160   1_455  S
Mg425       O431   2.171       .  S
Mg425       O975   2.299   1_455  S
Mg425       O991   2.276   1_455  S
Mg425       O427   2.268       .  S
C426        O464   1.271       .  A
C426        O432   1.273       .  A
O427        C434   1.269       .  A
C429       H1006   1.081       .  S
C429        O995   1.231       .  S
C429        O444   1.265       .  A
O430        C453   1.266       .  A
O431       Mg445   2.179       .  S
O432       Mg462   2.292       .  S
C433        O446   1.271       .  A
C433        O438   1.272       .  A
C434        O461   1.273       .  A
Mg435       O442   2.161       .  S
Mg435       O995   2.176       .  S
Mg435       O436   2.266       .  S
Mg435       O989   2.292       .  S
Mg435      O1016   2.276       .  S
O437        C441   1.266       .  A
O437       Mg987   2.292   1_455  S
O438       Mg445   2.282       .  S
O439        C458   1.271       .  A
O439       Mg977   2.276       .  S
O440        C460   1.268       .  A
O440       Mg456   2.265       .  S
O442       Mg456   2.182       .  S
O442        C453   1.232       .  S
O443       Mg987   2.176   1_455  S
O443       Mg462   2.145       .  S
O443        C981   1.231       .  S
O444       Mg456   2.292       .  S
Mg445       O461   2.274       .  S
H447       C1004   1.081       .  S
O448       Mg456   2.162       .  S
H450        C453   1.081       .  S
C452        H999   1.081       .  S
C452        O969   1.232       .  S
H454        C981   1.081       .  S
C458        O463   1.271       .  A
O459        C460   1.270       .  A
O464       Mg987   2.276   1_455  S
C465        C466   1.410       .  A
C465        C470   1.412       .  A
C466        C467   1.412       .  A
C466        H479   1.082       .  S
C467        C468   1.417       .  A
C467        H480   1.078       .  S
C468        C474   1.450       .  A
C468        C469   1.422       .  A
C469        C471   1.402       .  A
C469        C470   1.419       .  A
C470        H481   1.077       .  S
C471        C472   1.395       .  A
C471        H482   1.084       .  S
C472        C473   1.402       .  A
C472        H483   1.084       .  S
C473        C474   1.422       .  A
C473        C478   1.419       .  A
C474        C475   1.417       .  A
C475        C476   1.412       .  A
C475        H484   1.078       .  S
C476        C477   1.410       .  A
C476        H485   1.082       .  S
C477        C478   1.411       .  A
C478        H486   1.077       .  S
C487        C488   1.401       .  A
C487        C492   1.401       .  A
C488        C489   1.386       .  A
C488        H501   1.081       .  S
C489        C490   1.410       .  A
C489        H502   1.076       .  S
C490        C496   1.415       .  A
C490        C491   1.418       .  A
C491        C493   1.398       .  A
C491        C492   1.394       .  A
C492        H503   1.080       .  S
C493        C494   1.386       .  A
C493        H504   1.084       .  S
C494        C495   1.398       .  A
C494        H505   1.084       .  S
C495        C496   1.419       .  A
C495        C500   1.395       .  A
C496        C497   1.409       .  A
C497        C498   1.385       .  A
C497        H506   1.076       .  S
C498        C499   1.403       .  A
C498        H507   1.081       .  S
C499        C500   1.400       .  A
C500        H508   1.081       .  S
C509        C510   1.401       .  A
C509        C514   1.402       .  A
C510        C511   1.384       .  A
C510        H523   1.080       .  S
C511        C512   1.409       .  A
C511        H524   1.076       .  S
C512        C518   1.413       .  A
C512        C513   1.418       .  A
C513        C515   1.398       .  A
C513        C514   1.393       .  A
C514        H525   1.081       .  S
C515        C516   1.386       .  A
C515        H526   1.084       .  S
C516        C517   1.398       .  A
C516        H527   1.084       .  S
C517        C518   1.418       .  A
C517        C522   1.392       .  A
C518        C519   1.409       .  A
C519        C520   1.384       .  A
C519        H528   1.076       .  S
C520        C521   1.401       .  A
C520        H529   1.081       .  S
C521        C522   1.402       .  A
C522        H530   1.081       .  S
C531        C532   1.410       .  A
C531        C536   1.412       .  A
C532        C533   1.410       .  A
C532        H545   1.082       .  S
C533        C534   1.417       .  A
C533        H546   1.078       .  S
C534        C540   1.449       .  A
C534        C535   1.422       .  A
C535        C537   1.402       .  A
C535        C536   1.419       .  A
C536        H547   1.078       .  S
C537        C538   1.395       .  A
C537        H548   1.084       .  S
C538        C539   1.402       .  A
C538        H549   1.084       .  S
C539        C540   1.422       .  A
C539        C544   1.419       .  A
C540        C541   1.417       .  A
C541        C542   1.410       .  A
C541        H550   1.078       .  S
C542        C543   1.410       .  A
C542        H551   1.082       .  S
C543        C544   1.411       .  A
C544        H552   1.079       .  S
C553        C555   1.564       .  S
C553        C557   1.565       .  S
C553        C556   1.557       .  S
C553        C819   1.556       .  S
C554        C558   1.526       .  S
C554        C560   1.510       .  S
C554        C559   1.520       .  S
C554        C785   1.506       .  S
C555        C563   1.388       .  A
C555        C558   1.398   1_554  A
C556        C567   1.386       .  A
C556        C559   1.396   1_554  A
C557        C571   1.393       .  A
C557        C560   1.394   1_554  A
C558        C561   1.375       .  A
C559        C565   1.372       .  A
C560        C568   1.368       .  A
C561        N562   1.346       .  A
C561        H574   1.082       .  S
N562        C563   1.365   1_556  A
N562        C686   1.431       .  S
C563        H564   1.082       .  S
C565        N566   1.344       .  A
C565        H575   1.082       .  S
N566        C567   1.365   1_556  A
N566        C650   1.426       .  S
C567        H573   1.082       .  S
C568        N569   1.340       .  A
C568        H570   1.083       .  S
N569        C571   1.365   1_556  A
N569        C661   1.425       .  S
C571        H572   1.081       .  S
C576        C578   1.566       .  S
C576        C580   1.559       .  S
C576        C579   1.564       .  S
C576        C807   1.557       .  S
C577        C581   1.524       .  S
C577        C583   1.519       .  S
C577        C582   1.510       .  S
C577        C797   1.506       .  S
C578        C586   1.390       .  A
C578        C581   1.399       .  A
C579        C590   1.392       .  A
C579        C582   1.394       .  A
C580        C594   1.387       .  A
C580        C583   1.396       .  A
C581        C584   1.374       .  A
C582        C588   1.369       .  A
C583        C591   1.371       .  A
C584        N585   1.344       .  A
C584        H597   1.082       .  S
N585        C586   1.365       .  A
N585        C734   1.429       .  S
C586        H587   1.082       .  S
C588        N589   1.341       .  A
C588        H598   1.083       .  S
N589        C590   1.365       .  A
N589        C698   1.425       .  S
C590        H596   1.081       .  S
C591        N592   1.344       .  A
C591        H593   1.082       .  S
N592        C594   1.366       .  A
N592        C709   1.427       .  S
C594        H595   1.082       .  S
C599        C601   1.526       .  S
C599        C603   1.522       .  S
C599        C602   1.506       .  S
C599        C763   1.510       .  S
C600        C604   1.565       .  S
C600        C606   1.572       .  S
C600        C605   1.553       .  S
C600        C741   1.559       .  S
C601        C609   1.375       .  A
C601        C604   1.401   1_554  A
C602        C613   1.365       .  A
C602        C605   1.390   1_554  A
C603        C617   1.373       .  A
C603        C606   1.402   1_554  A
C604        C607   1.389       .  A
C605        C611   1.388       .  A
C606        C614   1.393       .  A
C607        N608   1.365   1_556  A
C607        H620   1.082       .  S
N608        C609   1.344       .  A
N608        C654   1.429       .  S
C609        H610   1.081       .  S
C611        N612   1.367   1_556  A
C611        H621   1.082       .  S
N612        C613   1.342       .  A
N612        C662   1.424       .  S
C613        H619   1.083       .  S
C614        N615   1.364   1_556  A
C614        H616   1.080       .  S
N615        C617   1.342       .  A
N615        C688   1.428       .  S
C617        H618   1.082       .  S
C622        C624   1.529       .  S
C622        C626   1.507       .  S
C622        C625   1.523       .  S
C622        C775   1.509       .  S
C623        C627   1.563       .  S
C623        C629   1.552       .  S
C623        C628   1.569       .  S
C623        C753   1.558       .  S
C624        C632   1.377       .  A
C624        C627   1.401       .  A
C625        C636   1.374       .  A
C625        C628   1.401       .  A
C626        C640   1.366       .  A
C626        C629   1.389       .  A
C627        C630   1.387       .  A
C628        C634   1.392       .  A
C629        C637   1.387       .  A
C630        N631   1.364       .  A
C630        H643   1.082       .  S
N631        C632   1.347       .  A
N631        C702   1.431       .  S
C632        H633   1.081       .  S
C634        N635   1.363       .  A
C634        H644   1.080       .  S
N635        C636   1.342       .  A
N635        C710   1.427       .  S
C636        H642   1.082       .  S
C637        N638   1.366       .  A
C637        H639   1.082       .  S
N638        C640   1.342       .  A
N638        C736   1.424       .  S
C640        H641   1.083       .  S
O645       Mg647   2.160       .  S
O645       Mg929   2.200   1_544  S
O645        C956   1.233       .  S
C646        H685   1.081       .  S
C646        O659   1.233       .  S
C646        O683   1.268       .  A
Mg647       O691   2.277       .  S
O648       Mg673   2.159       .  S
O649        C680   1.267       .  A
O649       Mg673   2.296       .  S
C650        O652   1.272       .  A
C650        O664   1.270   1_556  A
O651        C679   1.264   1_655  A
O651       Mg929   2.289   1_545  S
O652       Mg684   2.274       .  S
Mg653       O921   2.200   1_556  S
Mg653       O659   2.161       .  S
Mg653       O927   2.289       .  S
Mg653       O943   2.278       .  S
Mg653       O655   2.272       .  S
C654        O692   1.273       .  A
C654        O660   1.269       .  A
O655        C662   1.269   1_556  A
C657        H958   1.081       .  S
C657        O947   1.232       .  S
C657        O672   1.267   1_565  A
O658        C681   1.267       .  A
O659       Mg673   2.174   1_556  S
O660       Mg690   2.271   1_554  S
C661        O674   1.268       .  A
C661        O666   1.270       .  A
C662        O689   1.269       .  A
Mg663       O670   2.167       .  S
Mg663       O947   2.182   1_544  S
Mg663       O664   2.273       .  S
Mg663       O941   2.298   1_545  S
Mg663       O968   2.280   1_545  S
O665        C669   1.266       .  A
O665       Mg939   2.298       .  S
O666       Mg673   2.275   1_556  S
O667        C686   1.272       .  A
O667       Mg929   2.278   1_545  S
O668        C688   1.273       .  A
O668       Mg684   2.286   1_554  S
O670       Mg684   2.179   1_554  S
O670        C681   1.231       .  S
O671       Mg939   2.182   1_556  S
O671       Mg690   2.157       .  S
O671        C933   1.232       .  S
O672       Mg684   2.295       .  S
Mg673       O689   2.259       .  S
H675        C956   1.081       .  S
O676       Mg684   2.160       .  S
H678        C681   1.081       .  S
C680        H951   1.081       .  S
C680        O921   1.233       .  S
H682        C933   1.081       .  S
C686        O691   1.270   1_556  A
O687        C688   1.271       .  A
O692       Mg939   2.280       .  S
O693       Mg695   2.149       .  S
C694        H733   1.081       .  S
C694        O707   1.232       .  S
C694        O731   1.267       .  A
Mg695      O1000   2.187   1_545  S
Mg695       O739   2.282       .  S
Mg695      O1011   2.258   1_545  S
Mg695       O982   2.291   1_545  S
O696      Mg1014   2.188   1_545  S
O696       Mg721   2.166       .  S
O696        C993   1.232   1_545  S
O697        C728   1.267       .  A
O697       Mg721   2.297       .  S
C698        O700   1.271       .  A
C698        O712   1.269       .  A
O699        C727   1.267   1_545  A
O700       Mg732   2.264       .  S
Mg701       O707   2.171       .  S
Mg701       O703   2.268       .  S
C702        O740   1.271       .  A
C702        O708   1.273       .  A
O703        C710   1.269       .  A
H704        C993   1.081   1_545  S
C705        O720   1.265   1_455  A
O706        C729   1.266       .  A
O706       Mg971   2.291       .  S
O707       Mg721   2.179       .  S
O708       Mg738   2.292       .  S
C709        O722   1.271       .  A
C709        O714   1.272       .  A
C710        O737   1.273       .  A
Mg711       O718   2.161       .  S
Mg711       O712   2.266       .  S
O713        C717   1.266       .  A
O714       Mg721   2.282       .  S
O715        C734   1.271       .  A
O716        C736   1.268       .  A
O716       Mg732   2.265       .  S
C717        H980   1.081       .  S
C717        O972   1.232       .  S
O718       Mg732   2.182       .  S
O718        C729   1.232       .  S
O719       Mg738   2.145       .  S
O720       Mg732   2.292       .  S
Mg721       O737   2.274       .  S
O722      Mg1014   2.265   1_545  S
O724       Mg971   2.187       .  S
O724       Mg732   2.162       .  S
O724       C1003   1.232       .  S
H725       C1003   1.081       .  S
H726        C729   1.081       .  S
C727       H1001   1.081       .  S
C727       O1000   1.232       .  S
O731      Mg1014   2.300   1_545  S
C734        O739   1.271       .  A
O735        C736   1.270       .  A
O735       Mg971   2.258       .  S
Mg738       O972   2.188       .  S
Mg738       O998   2.265       .  S
Mg738      O1007   2.300       .  S
C741        C742   1.410       .  A
C741        C746   1.412       .  A
C742        C743   1.412       .  A
C742        H755   1.082       .  S
C743        C744   1.417       .  A
C743        H756   1.078       .  S
C744        C750   1.450       .  A
C744        C745   1.422       .  A
C745        C747   1.402       .  A
C745        C746   1.419       .  A
C746        H757   1.077       .  S
C747        C748   1.395       .  A
C747        H758   1.084       .  S
C748        C749   1.402       .  A
C748        H759   1.084       .  S
C749        C750   1.422       .  A
C749        C754   1.419       .  A
C750        C751   1.417       .  A
C751        C752   1.412       .  A
C751        H760   1.078       .  S
C752        C753   1.410       .  A
C752        H761   1.082       .  S
C753        C754   1.411       .  A
C754        H762   1.077       .  S
C763        C764   1.401       .  A
C763        C768   1.401       .  A
C764        C765   1.386       .  A
C764        H777   1.081       .  S
C765        C766   1.410       .  A
C765        H778   1.076       .  S
C766        C772   1.415       .  A
C766        C767   1.418       .  A
C767        C769   1.398       .  A
C767        C768   1.394       .  A
C768        H779   1.080       .  S
C769        C770   1.386       .  A
C769        H780   1.084       .  S
C770        C771   1.398       .  A
C770        H781   1.084       .  S
C771        C772   1.419       .  A
C771        C776   1.395       .  A
C772        C773   1.409       .  A
C773        C774   1.385       .  A
C773        H782   1.076       .  S
C774        C775   1.403       .  A
C774        H783   1.081       .  S
C775        C776   1.400       .  A
C776        H784   1.081       .  S
C785        C786   1.401       .  A
C785        C790   1.402       .  A
C786        C787   1.384       .  A
C786        H799   1.080       .  S
C787        C788   1.409       .  A
C787        H800   1.076       .  S
C788        C794   1.413       .  A
C788        C789   1.418       .  A
C789        C791   1.398       .  A
C789        C790   1.393       .  A
C790        H801   1.081       .  S
C791        C792   1.386       .  A
C791        H802   1.084       .  S
C792        C793   1.398       .  A
C792        H803   1.084       .  S
C793        C794   1.418       .  A
C793        C798   1.392       .  A
C794        C795   1.409       .  A
C795        C796   1.384       .  A
C795        H804   1.076       .  S
C796        C797   1.401       .  A
C796        H805   1.081       .  S
C797        C798   1.402       .  A
C798        H806   1.081       .  S
C807        C808   1.410       .  A
C807        C812   1.412       .  A
C808        C809   1.410       .  A
C808        H821   1.082       .  S
C809        C810   1.417       .  A
C809        H822   1.078       .  S
C810        C816   1.449       .  A
C810        C811   1.422       .  A
C811        C813   1.402       .  A
C811        C812   1.419       .  A
C812        H823   1.078       .  S
C813        C814   1.395       .  A
C813        H824   1.084       .  S
C814        C815   1.402       .  A
C814        H825   1.084       .  S
C815        C816   1.422       .  A
C815        C820   1.419       .  A
C816        C817   1.417       .  A
C817        C818   1.410       .  A
C817        H826   1.078       .  S
C818        C819   1.410       .  A
C818        H827   1.081       .  S
C819        C820   1.411       .  A
C820        H828   1.079       .  S
C829        C831   1.564       .  S
C829        C833   1.565       .  S
C829        C832   1.557       .  S
C829       C1095   1.556       .  S
C830        C834   1.526       .  S
C830        C836   1.510       .  S
C830        C835   1.520       .  S
C830       C1061   1.506       .  S
C831        C839   1.388       .  A
C831        C834   1.398   1_554  A
C832        C843   1.386       .  A
C832        C835   1.396   1_554  A
C833        C847   1.393       .  A
C833        C836   1.394   1_554  A
C834        C837   1.375       .  A
C835        C841   1.372       .  A
C836        C844   1.368       .  A
C837        N838   1.346       .  A
C837        H850   1.082       .  S
N838        C839   1.365   1_556  A
N838        C962   1.431       .  S
C839        H840   1.082       .  S
C841        N842   1.344       .  A
C841        H851   1.082       .  S
N842        C843   1.365   1_556  A
N842        C926   1.426       .  S
C843        H849   1.082       .  S
C844        N845   1.340       .  A
C844        H846   1.083       .  S
N845        C847   1.365   1_556  A
N845        C937   1.425       .  S
C847        H848   1.081       .  S
C852        C854   1.566       .  S
C852        C856   1.559       .  S
C852        C855   1.564       .  S
C852       C1083   1.557       .  S
C853        C857   1.524       .  S
C853        C859   1.519       .  S
C853        C858   1.510       .  S
C853       C1073   1.506       .  S
C854        C862   1.390       .  A
C854        C857   1.399       .  A
C855        C866   1.392       .  A
C855        C858   1.394       .  A
C856        C870   1.387       .  A
C856        C859   1.396       .  A
C857        C860   1.374       .  A
C858        C864   1.369       .  A
C859        C867   1.371       .  A
C860        N861   1.344       .  A
C860        H873   1.082       .  S
N861        C862   1.365       .  A
N861       C1010   1.429       .  S
C862        H863   1.082       .  S
C864        N865   1.341       .  A
C864        H874   1.083       .  S
N865        C866   1.365       .  A
N865        C974   1.425       .  S
C866        H872   1.081       .  S
C867        N868   1.344       .  A
C867        H869   1.082       .  S
N868        C870   1.366       .  A
N868        C985   1.427       .  S
C870        H871   1.082       .  S
C875        C877   1.526       .  S
C875        C879   1.522       .  S
C875        C878   1.506       .  S
C875       C1039   1.510       .  S
C876        C880   1.565       .  S
C876        C882   1.572       .  S
C876        C881   1.553       .  S
C876       C1017   1.559       .  S
C877        C885   1.375       .  A
C877        C880   1.401   1_554  A
C878        C889   1.365       .  A
C878        C881   1.390   1_554  A
C879        C893   1.373       .  A
C879        C882   1.402   1_554  A
C880        C883   1.389       .  A
C881        C887   1.388       .  A
C882        C890   1.393       .  A
C883        N884   1.365   1_556  A
C883        H896   1.082       .  S
N884        C885   1.344       .  A
N884        C930   1.429       .  S
C885        H886   1.081       .  S
C887        N888   1.367   1_556  A
C887        H897   1.082       .  S
N888        C889   1.342       .  A
N888        C938   1.424       .  S
C889        H895   1.083       .  S
C890        N891   1.364   1_556  A
C890        H892   1.080       .  S
N891        C893   1.342       .  A
N891        C964   1.428       .  S
C893        H894   1.082       .  S
C898        C900   1.529       .  S
C898        C902   1.507       .  S
C898        C901   1.523       .  S
C898       C1051   1.509       .  S
C899        C903   1.563       .  S
C899        C905   1.552       .  S
C899        C904   1.569       .  S
C899       C1029   1.558       .  S
C900        C908   1.377       .  A
C900        C903   1.401       .  A
C901        C912   1.374       .  A
C901        C904   1.401       .  A
C902        C916   1.366       .  A
C902        C905   1.389       .  A
C903        C906   1.387       .  A
C904        C910   1.392       .  A
C905        C913   1.387       .  A
C906        N907   1.364       .  A
C906        H919   1.082       .  S
N907        C908   1.347       .  A
N907        C978   1.431       .  S
C908        H909   1.081       .  S
C910        N911   1.363       .  A
C910        H920   1.080       .  S
N911        C912   1.342       .  A
N911        C986   1.427       .  S
C912        H918   1.082       .  S
C913        N914   1.366       .  A
C913        H915   1.082       .  S
N914        C916   1.342       .  A
N914       C1012   1.424       .  S
C916        H917   1.083       .  S
O921       Mg923   2.160       .  S
C922        H961   1.081       .  S
C922        O935   1.233       .  S
C922        O959   1.268       .  A
Mg923       O967   2.277       .  S
O924       Mg949   2.159       .  S
O925        C956   1.267   1_565  A
O925       Mg949   2.296       .  S
C926        O928   1.272       .  A
C926        O940   1.270   1_556  A
O927        C955   1.264   1_655  A
O928       Mg960   2.274       .  S
Mg929       O935   2.161       .  S
Mg929       O931   2.272       .  S
C930        O968   1.273       .  A
C930        O936   1.269       .  A
O931        C938   1.269   1_556  A
C933        O948   1.267       .  A
O934        C957   1.267       .  A
O935       Mg949   2.174   1_556  S
O936       Mg966   2.271   1_554  S
C937        O950   1.268       .  A
C937        O942   1.270       .  A
C938        O965   1.269       .  A
Mg939       O946   2.167       .  S
Mg939       O940   2.273       .  S
O941        C945   1.266       .  A
O942       Mg949   2.275   1_556  S
O943        C962   1.272       .  A
O944        C964   1.273       .  A
O944       Mg960   2.286   1_554  S
O946       Mg960   2.179   1_554  S
O946        C957   1.231       .  S
O947       Mg966   2.157       .  S
O948       Mg960   2.295       .  S
Mg949       O965   2.259       .  S
O952       Mg960   2.160       .  S
H954        C957   1.081       .  S
C962        O967   1.270   1_556  A
O963        C964   1.271       .  A
O969       Mg971   2.149       .  S
C970       H1009   1.081       .  S
C970        O983   1.232       .  S
C970       O1007   1.267       .  A
Mg971      O1015   2.282       .  S
O972       Mg997   2.166       .  S
O973       C1004   1.267       .  A
O973       Mg997   2.297       .  S
C974        O976   1.271       .  A
C974        O988   1.269       .  A
O975       C1003   1.267       .  A
O976      Mg1008   2.264       .  S
Mg977       O983   2.171       .  S
Mg977       O979   2.268       .  S
C978       O1016   1.271       .  A
C978        O984   1.273       .  A
O979        C986   1.269       .  A
C981        O996   1.265   1_455  A
O982       C1005   1.266       .  A
O983       Mg997   2.179       .  S
O984      Mg1014   2.292       .  S
C985        O998   1.271       .  A
C985        O990   1.272       .  A
C986       O1013   1.273       .  A
Mg987       O994   2.161       .  S
Mg987       O988   2.266       .  S
O989        C993   1.266       .  A
O990       Mg997   2.282       .  S
O991       C1010   1.271       .  A
O992       C1012   1.268       .  A
O992      Mg1008   2.265       .  S
O994      Mg1008   2.182       .  S
O994       C1005   1.232       .  S
O995      Mg1014   2.145       .  S
O996      Mg1008   2.292       .  S
Mg997      O1013   2.274       .  S
O1000     Mg1008   2.162       .  S
H1002      C1005   1.081       .  S
C1010      O1015   1.271       .  A
O1011      C1012   1.270       .  A
C1017      C1018   1.410       .  A
C1017      C1022   1.412       .  A
C1018      C1019   1.412       .  A
C1018      H1031   1.082       .  S
C1019      C1020   1.417       .  A
C1019      H1032   1.078       .  S
C1020      C1026   1.450       .  A
C1020      C1021   1.422       .  A
C1021      C1023   1.402       .  A
C1021      C1022   1.419       .  A
C1022      H1033   1.077       .  S
C1023      C1024   1.395       .  A
C1023      H1034   1.084       .  S
C1024      C1025   1.402       .  A
C1024      H1035   1.084       .  S
C1025      C1026   1.422       .  A
C1025      C1030   1.419       .  A
C1026      C1027   1.417       .  A
C1027      C1028   1.412       .  A
C1027      H1036   1.078       .  S
C1028      C1029   1.410       .  A
C1028      H1037   1.082       .  S
C1029      C1030   1.411       .  A
C1030      H1038   1.077       .  S
C1039      C1040   1.401       .  A
C1039      C1044   1.401       .  A
C1040      C1041   1.386       .  A
C1040      H1053   1.081       .  S
C1041      C1042   1.410       .  A
C1041      H1054   1.076       .  S
C1042      C1048   1.415       .  A
C1042      C1043   1.418       .  A
C1043      C1045   1.398       .  A
C1043      C1044   1.394       .  A
C1044      H1055   1.080       .  S
C1045      C1046   1.386       .  A
C1045      H1056   1.084       .  S
C1046      C1047   1.398       .  A
C1046      H1057   1.084       .  S
C1047      C1048   1.419       .  A
C1047      C1052   1.395       .  A
C1048      C1049   1.409       .  A
C1049      C1050   1.385       .  A
C1049      H1058   1.076       .  S
C1050      C1051   1.403       .  A
C1050      H1059   1.081       .  S
C1051      C1052   1.400       .  A
C1052      H1060   1.081       .  S
C1061      C1062   1.401       .  A
C1061      C1066   1.402       .  A
C1062      C1063   1.384       .  A
C1062      H1075   1.080       .  S
C1063      C1064   1.409       .  A
C1063      H1076   1.076       .  S
C1064      C1070   1.413       .  A
C1064      C1065   1.418       .  A
C1065      C1067   1.398       .  A
C1065      C1066   1.393       .  A
C1066      H1077   1.081       .  S
C1067      C1068   1.386       .  A
C1067      H1078   1.084       .  S
C1068      C1069   1.398       .  A
C1068      H1079   1.084       .  S
C1069      C1070   1.418       .  A
C1069      C1074   1.392       .  A
C1070      C1071   1.409       .  A
C1071      C1072   1.384       .  A
C1071      H1080   1.076       .  S
C1072      C1073   1.401       .  A
C1072      H1081   1.081       .  S
C1073      C1074   1.402       .  A
C1074      H1082   1.081       .  S
C1083      C1084   1.410       .  A
C1083      C1088   1.412       .  A
C1084      C1085   1.410       .  A
C1084      H1097   1.082       .  S
C1085      C1086   1.417       .  A
C1085      H1098   1.078       .  S
C1086      C1092   1.449       .  A
C1086      C1087   1.422       .  A
C1087      C1089   1.402       .  A
C1087      C1088   1.419       .  A
C1088      H1099   1.078       .  S
C1089      C1090   1.395       .  A
C1089      H1100   1.084       .  S
C1090      C1091   1.402       .  A
C1090      H1101   1.084       .  S
C1091      C1092   1.422       .  A
C1091      C1096   1.419       .  A
C1092      C1093   1.417       .  A
C1093      C1094   1.410       .  A
C1093      H1102   1.078       .  S
C1094      C1095   1.410       .  A
C1094      H1103   1.082       .  S
C1095      C1096   1.411       .  A
C1096      H1104   1.079       .  S
