geometry optimzed in LAMMPS
_audit_creation_date              2020-12-01 
_audit_creation_method            'lammps2cif' 
_symmetry_space_group_name_H-M    'P1' 
_symmetry_Int_Tables_number       1 
_symmetry_cell_setting            triclinic 
loop_ 
_symmetry_equiv_pos_as_xyz 
  x,y,z 
_cell_length_a                    67.79222421 
_cell_length_b                    67.89790693546406 
_cell_length_c                    35.64668990001669 
_cell_angle_alpha                 89.91960269385257 
_cell_angle_beta                  90.42477699311345 
_cell_angle_gamma                 90.10694410008045 
loop_ 
_atom_site_label 
_atom_site_type_symbol 
_atom_site_fract_x 
_atom_site_fract_y 
_atom_site_fract_z 
_atom_site_charge 
C1          C  0.24979580  0.47894354  0.13654137     0.80200
N2          N  0.24651206  0.47963492  0.17405704    -0.78100
C3          C  0.24331670  0.49700247  0.19144769     0.82600
N4          N  0.24339344  0.51384774  0.17120048    -0.78000
C5          C  0.24660514  0.51354290  0.13367020     0.82700
N6          N  0.24982649  0.49599311  0.11609962    -0.79800
C7          C  0.23938336  0.51583038  0.28822240     0.80200
N8          N  0.24169476  0.51494524  0.25048719    -0.78100
C9          C  0.24014250  0.49767086  0.23200138     0.82600
N10         N  0.23618860  0.48103452  0.25140281    -0.78000
C11         C  0.23369797  0.48151181  0.28918771     0.82700
N12         N  0.23538379  0.49901509  0.30786915    -0.79800
C13         C  0.02282892  0.75562694  0.35228329     0.80200
N14         N  0.00599788  0.75265508  0.33176575    -0.78100
C15         C  0.98878304  0.74851435  0.34974375     0.82600
N16         N  0.98863815  0.74721290  0.38770297    -0.78000
C17         C  0.00525754  0.75004604  0.40806636     0.82700
N18         N  0.02233062  0.75423716  0.39029821    -0.79800
C19         C  0.98699535  0.74055885  0.00385686     0.80200
N20         N  0.98756017  0.74447425  0.46651150    -0.78100
C21         C  0.00490274  0.74711668  0.44875245     0.82600
N22         N  0.02191832  0.74527770  0.46827079    -0.78000
C23         C  0.02184625  0.74113834  0.00553959     0.82700
N24         N  0.00426791  0.73889229  0.02374906    -0.79800
Zn25       Zn  0.24269155  0.76975190  0.29791822     1.49700
Zn26       Zn  0.23659305  0.73445790  0.35850303     1.49400
Zn27       Zn  0.27068958  0.73221806  0.29713198     1.49100
Zn28       Zn  0.27455848  0.76316070  0.36423837     1.49500
O29         O  0.25603394  0.74996586  0.32963297    -1.84100
O30         O  0.21322037  0.76807345  0.30558750    -0.74800
O31         O  0.23913969  0.70489907  0.34855444    -0.74600
O32         O  0.26599346  0.73797077  0.24220305    -0.74100
O33         O  0.20875203  0.74293142  0.34470981    -0.74800
O34         O  0.24755329  0.76502206  0.24212927    -0.74400
O35         O  0.26264159  0.70419369  0.30562424    -0.75000
O36         O  0.30291349  0.75465379  0.35540316    -0.74400
O37         O  0.24046755  0.73870456  0.41451455    -0.75100
O38         O  0.29977856  0.73381066  0.30782446    -0.74500
O39         O  0.26773388  0.75698886  0.41832704    -0.75000
O40         O  0.27316041  0.79279493  0.35747927    -0.74900
O41         O  0.25144788  0.79752122  0.31136862    -0.74700
C42         C  0.20185947  0.75666919  0.32397816     0.77100
C43         C  0.25025024  0.69533481  0.32634815     0.77600
C44         C  0.25670148  0.75146121  0.22475312     0.76600
C45         C  0.31049604  0.74291926  0.33164922     0.76900
C46         C  0.25369116  0.74754618  0.43374061     0.78100
C47         C  0.26350570  0.80429823  0.33579805     0.77100
Zn48       Zn  0.23575634  0.76310827  0.04712333     1.49700
Zn49       Zn  0.23700971  0.73209679  0.11438795     1.49400
Zn50       Zn  0.26832382  0.72907959  0.04773380     1.49100
Zn51       Zn  0.27154139  0.76460534  0.10781121     1.49500
O52         O  0.25323720  0.74731126  0.07937344    -1.84100
O53         O  0.20689127  0.75741195  0.05762216    -0.74800
O54         O  0.24122244  0.70294349  0.10672399    -0.74600
O55         O  0.26427021  0.73510525  0.49246323    -0.74100
O56         O  0.20779767  0.73729129  0.10672162    -0.74800
O57         O  0.24086917  0.75806074  0.49189907    -0.74400
O58         O  0.26109370  0.70046567  0.05773858    -0.75000
O59         O  0.30039485  0.75740087  0.09687204    -0.74400
O60         O  0.24386317  0.73866200  0.16821255    -0.75100
O61         O  0.29741789  0.73173405  0.05858612    -0.74500
O62         O  0.26724294  0.76163144  0.16428044    -0.75000
O63         O  0.26626394  0.79349195  0.09545267    -0.74900
O64         O  0.24051421  0.79206810  0.05654264    -0.74700
C65         C  0.19808720  0.74725515  0.08257025     0.77100
C66         C  0.25062154  0.69248776  0.08316590     0.77600
C67         C  0.25282961  0.74680940  0.47482409     0.76600
C68         C  0.30811143  0.74355037  0.07766748     0.76900
C69         C  0.25585988  0.75068599  0.18359634     0.78100
C70         C  0.25302280  0.80200428  0.07560757     0.77100
C71         C  0.48781708  0.73402407  0.12878995     0.80200
N72         N  0.50530397  0.73453830  0.10966974    -0.78100
C73         C  0.52269970  0.73505751  0.12943620     0.82600
N74         N  0.52232077  0.73579172  0.16740759    -0.78000
C75         C  0.50513076  0.73570631  0.18621024     0.82700
N76         N  0.48795893  0.73459391  0.16689387    -0.79800
C77         C  0.52310687  0.74497836  0.28245292     0.80200
N78         N  0.52243986  0.74217935  0.24482046    -0.78100
C79         C  0.50533947  0.73779362  0.22704742     0.82600
N80         N  0.48857031  0.73613694  0.24710678    -0.78000
C81         C  0.48884258  0.73888572  0.28486882     0.82700
N82         N  0.50617761  0.74337189  0.30274441    -0.79800
Zn83       Zn  0.77273702  0.73740528  0.28637886     1.49700
Zn84       Zn  0.77365377  0.77049593  0.35090312     1.49400
Zn85       Zn  0.73999727  0.77148486  0.28780966     1.49100
Zn86       Zn  0.73979240  0.73707665  0.35009608     1.49500
O87         O  0.75655161  0.75410976  0.31883454    -1.84100
O88         O  0.80180699  0.74305139  0.29394755    -0.74800
O89         O  0.77043736  0.79969824  0.33924310    -0.74600
O90         O  0.74287540  0.76524724  0.23243398    -0.74100
O91         O  0.80220311  0.76427393  0.34131062    -0.74800
O92         O  0.76615558  0.74219929  0.23180494    -0.74400
O93         O  0.74759170  0.80020507  0.29437640    -0.75000
O94         O  0.71076742  0.74307731  0.34168614    -0.74400
O95         O  0.76827519  0.76548562  0.40618237    -0.75100
O96         O  0.71135323  0.76839723  0.30206920    -0.74500
O97         O  0.74542759  0.74190699  0.40503990    -0.75000
O98         O  0.74480961  0.70801609  0.34037012    -0.74900
O99         O  0.76832124  0.70839599  0.29738576    -0.74700
C100        C  0.81121732  0.75368352  0.31747729     0.77100
C101        C  0.75982549  0.80916948  0.31568148     0.77600
C102        C  0.75411529  0.75352864  0.21469425     0.76600
C103        C  0.70188727  0.75642588  0.32290399     0.76900
C104        C  0.75680413  0.75353874  0.42305773     0.78100
C105        C  0.75680533  0.69894674  0.31911935     0.77100
Zn106      Zn  0.77269645  0.76870572  0.03848854     1.49700
Zn107      Zn  0.73777251  0.73683015  0.03540438     1.49400
Zn108      Zn  0.77045340  0.73604781  0.10182430     1.49100
Zn109      Zn  0.73770439  0.77012281  0.10000222     1.49500
O110        O  0.75455891  0.75296307  0.06890911    -1.84100
O111        O  0.76815952  0.76431415  0.48281727    -0.74800
O112        O  0.74144273  0.70760555  0.04614466    -0.74600
O113        O  0.79992040  0.73978537  0.09459198    -0.74100
O114        O  0.74432946  0.74179098  0.48087454    -0.74800
O115        O  0.80152085  0.76245758  0.04986371    -0.74400
O116        O  0.76384630  0.70769141  0.09197764    -0.75000
O117        O  0.74228749  0.76507557  0.15565119    -0.74400
O118        O  0.70874976  0.74335195  0.04214972    -0.75100
O119        O  0.76494913  0.74144608  0.15624836    -0.74500
O120        O  0.70865226  0.76514076  0.08864901    -0.75000
O121        O  0.74355339  0.79913606  0.08986083    -0.74900
O122        O  0.76783670  0.79741620  0.04841459    -0.74700
C123        C  0.75646953  0.75317934  0.46438786     0.77100
C124        C  0.75232326  0.69844983  0.06971155     0.77600
C125        C  0.80998591  0.75071636  0.07281838     0.76600
C126        C  0.75362288  0.75328348  0.17339680     0.76900
C127        C  0.69947168  0.75448564  0.06474900     0.78100
C128        C  0.75603791  0.80748062  0.06841173     0.77100
C129        C  0.75190871  0.48499368  0.10781678     0.80200
N130        N  0.75066860  0.50220538  0.08812566    -0.78100
C131        C  0.75306735  0.51968687  0.10641264     0.82600
N132        N  0.75618738  0.51984699  0.14406085    -0.78000
C133        C  0.75682710  0.50283805  0.16377575     0.82700
N134        N  0.75487102  0.48547907  0.14553181    -0.79800
C135        C  0.76453174  0.52101217  0.26056856     0.80200
N136        N  0.76295220  0.52037144  0.22258949    -0.78100
C137        C  0.75908768  0.50324453  0.20467276     0.82600
N138        N  0.75677122  0.48656660  0.22487955    -0.78000
C139        C  0.75834687  0.48675431  0.26285975     0.82700
N140        N  0.76224861  0.50409459  0.28100173    -0.79800
C141        C  0.76500188  0.02087869  0.35449240     0.80200
N142        N  0.77040105  0.00389892  0.33671376    -0.78100
C143        C  0.77239438  0.98688508  0.35696276     0.82600
N144        N  0.76905689  0.98704229  0.39446139    -0.78000
C145        C  0.76363787  0.00378725  0.41207485     0.82700
N146        N  0.76160181  0.02059776  0.39200489    -0.79800
C147        C  0.75558730  0.98602855  0.00902840     0.80200
N148        N  0.75190207  0.00323345  0.02744654    -0.78100
C149        C  0.75257288  0.02064439  0.00831119     0.82600
N150        N  0.75648804  0.02069629  0.47101136    -0.78000
C151        C  0.75976259  0.00363756  0.45252734     0.82700
N152        N  0.75953925  0.98642636  0.47171360    -0.79800
Zn153      Zn  0.76345457  0.27239832  0.27556381     1.49700
Zn154      Zn  0.76565115  0.23756961  0.33719289     1.49400
Zn155      Zn  0.73017221  0.26919957  0.33940668     1.49100
Zn156      Zn  0.73201335  0.23704491  0.27365763     1.49500
O157        O  0.74785530  0.25408772  0.30653562    -1.84100
O158        O  0.79278824  0.26833808  0.28415717    -0.74800
O159        O  0.76013948  0.24105518  0.39281914    -0.74600
O160        O  0.73426167  0.29869433  0.33258239    -0.74100
O161        O  0.79411381  0.24531334  0.32843755    -0.74800
O162        O  0.75768156  0.30074296  0.28942428    -0.74400
O163        O  0.73543066  0.26261398  0.39410792    -0.75000
O164        O  0.70290894  0.24048555  0.28353070    -0.74400
O165        O  0.76268206  0.20840864  0.32439158    -0.75100
O166        O  0.70144181  0.26281642  0.32885775    -0.74500
O167        O  0.73859387  0.20831967  0.28187697    -0.75000
O168        O  0.73697717  0.24306715  0.21895126    -0.74900
O169        O  0.75776490  0.26849270  0.21984862    -0.74700
C170        C  0.80267531  0.25742381  0.30651095     0.77100
C171        C  0.74773303  0.25140448  0.41081205     0.77600
C172        C  0.74583419  0.30891477  0.31222519     0.76600
C173        C  0.69295264  0.25100128  0.30612465     0.76900
C174        C  0.75110125  0.19913597  0.30220468     0.78100
C175        C  0.74728489  0.25595689  0.20203600     0.77100
Zn176      Zn  0.76493360  0.26883524  0.02344943     1.49700
Zn177      Zn  0.73143860  0.27094808  0.08631833     1.49400
Zn178      Zn  0.73178479  0.23541009  0.02582095     1.49100
Zn179      Zn  0.76520662  0.23779526  0.09061773     1.49500
O180        O  0.74821652  0.25319965  0.05662759    -1.84100
O181        O  0.75937038  0.29769507  0.02915787    -0.74800
O182        O  0.70258420  0.26451073  0.07736514    -0.74600
O183        O  0.73600795  0.24023301  0.46980260    -0.74100
O184        O  0.73589864  0.29964619  0.07207681    -0.74800
O185        O  0.76040452  0.26220504  0.46892430    -0.74400
O186        O  0.70279782  0.23977255  0.03660699    -0.75000
O187        O  0.76147906  0.20862393  0.08173586    -0.74400
O188        O  0.73690299  0.26779122  0.14239544    -0.75100
O189        O  0.73810099  0.20675151  0.03782400    -0.74500
O190        O  0.75856748  0.24320694  0.14470843    -0.75000
O191        O  0.79418721  0.24466760  0.08435797    -0.74900
O192        O  0.79363300  0.26535237  0.03613567    -0.74700
C193        C  0.74769052  0.30785128  0.04909876     0.77100
C194        C  0.69345760  0.25181803  0.05734754     0.77600
C195        C  0.74811527  0.25110908  0.45197941     0.76600
C196        C  0.75014582  0.19847063  0.06055901     0.76900
C197        C  0.74762485  0.25575169  0.16090303     0.78100
C198        C  0.80310459  0.25584877  0.06125045     0.77100
C199        C  0.48250432  0.24030696  0.12459226     0.80200
N200        N  0.48251657  0.23963558  0.16257186    -0.78100
C201        C  0.49919393  0.24306054  0.18251443     0.82600
N202        N  0.51612401  0.24723497  0.16431751    -0.78000
C203        C  0.51648872  0.24791539  0.12623230     0.82700
N204        N  0.49956953  0.24456059  0.10611346    -0.79800
C205        C  0.51412338  0.24370965  0.28252510     0.80200
N206        N  0.49619117  0.24423616  0.29978828    -0.78100
C207        C  0.47933645  0.24403820  0.27850639     0.82600
N208        N  0.48078069  0.24346356  0.24060824    -0.78000
C209        C  0.49844770  0.24316347  0.22349527     0.82700
N210        N  0.51511651  0.24323317  0.24449235    -0.79800
C211        C  0.25406178  0.01741604  0.38802539     0.80200
N212        N  0.25102871  0.01679430  0.42564030    -0.78100
C213        C  0.25293731  0.99971895  0.44487543     0.82600
N214        N  0.25779695  0.98309042  0.42637822    -0.78000
C215        C  0.26060453  0.98325370  0.38875634     0.82700
N216        N  0.25879939  0.00052257  0.36933096    -0.79800
C217        C  0.24960502  0.98124782  0.04206590     0.80200
N218        N  0.25284969  0.98220429  0.50463044    -0.78100
C219        C  0.24969960  0.99909892  0.48540882     0.82600
N220        N  0.24332508  0.01525399  0.50381541    -0.78000
C221        C  0.24015902  0.01471234  0.04137222     0.82700
N222        N  0.24324929  0.99758862  0.06076549    -0.79800
C223        C  0.01293853  0.26342654  0.38719085     0.80200
N224        N  0.99541329  0.26745228  0.36948203    -0.78100
C225        C  0.97862548  0.26932171  0.39025131     0.82600
N226        N  0.97964444  0.26722542  0.42809305    -0.78000
C227        C  0.99688982  0.26314959  0.44560397     0.82700
N228        N  0.01344667  0.26118605  0.42507316    -0.79800
C229        C  0.98111101  0.26117760  0.04457386     0.80200
N230        N  0.98089576  0.26342956  0.50673681    -0.78100
C231        C  0.99745998  0.26073628  0.48648668     0.82600
N232        N  0.01444873  0.25584694  0.50429959    -0.78000
C233        C  0.01500567  0.25369136  0.04221717     0.82700
N234        N  0.99824300  0.25631437  0.06251584    -0.79800
Zn235      Zn  0.22901354  0.23365982  0.30311127     1.49700
Zn236      Zn  0.26408880  0.23278665  0.36454864     1.49400
Zn237      Zn  0.26171237  0.26729303  0.30338563     1.49100
Zn238      Zn  0.22966150  0.26563943  0.36940865     1.49500
O239        O  0.24609248  0.24983619  0.33533882    -1.84100
O240        O  0.23423710  0.20483969  0.31185811    -0.74800
O241        O  0.29274049  0.23938060  0.35442653    -0.74600
O242        O  0.25715240  0.26200665  0.24803722    -0.74100
O243        O  0.25967442  0.20401158  0.35151760    -0.74800
O244        O  0.23399681  0.23877332  0.24799867    -0.74400
O245        O  0.29080039  0.26412940  0.31382820    -0.75000
O246        O  0.23442711  0.29498309  0.36164727    -0.74400
O247        O  0.25971607  0.23620169  0.42055607    -0.75100
O248        O  0.25480306  0.29549375  0.31314917    -0.74500
O249        O  0.23578728  0.25859571  0.42389086    -0.75000
O250        O  0.20036015  0.26103704  0.35898815    -0.74900
O251        O  0.20020124  0.23886704  0.31321733    -0.74700
C252        C  0.24700118  0.19523843  0.33082531     0.77100
C253        C  0.30098390  0.25240191  0.33405076     0.77600
C254        C  0.24566072  0.25025844  0.23065000     0.76600
C255        C  0.24427713  0.30444319  0.33713904     0.76900
C256        C  0.24803816  0.24688674  0.43957672     0.78100
C257        C  0.19103044  0.25007574  0.33580328     0.77100
Zn258      Zn  0.26692096  0.26095297  0.05398037     1.49700
Zn259      Zn  0.23191531  0.26517282  0.11424169     1.49400
Zn260      Zn  0.23105735  0.23004134  0.05318420     1.49100
Zn261      Zn  0.26243423  0.22918919  0.12031927     1.49500
O262        O  0.24805874  0.24639550  0.08539922    -1.84100
O263        O  0.26508567  0.29031519  0.06351846    -0.74800
O264        O  0.20273562  0.26159567  0.10308502    -0.74600
O265        O  0.23670662  0.23464208  0.49785020    -0.74100
O266        O  0.23952398  0.29329930  0.10179189    -0.74800
O267        O  0.26118094  0.25656705  0.49846094    -0.74400
O268        O  0.20280850  0.23763811  0.06069102    -0.75000
O269        O  0.25432499  0.20070240  0.11413985    -0.74400
O270        O  0.23583776  0.26144760  0.17039214    -0.75100
O271        O  0.23319948  0.20080427  0.06628817    -0.74500
O272        O  0.25709145  0.23656728  0.17417081    -0.75000
O273        O  0.29183591  0.23096450  0.11179451    -0.74900
O274        O  0.29506436  0.25262922  0.06547501    -0.74700
C275        C  0.25324596  0.30096078  0.08228071     0.77100
C276        C  0.19359768  0.25000228  0.08085530     0.77600
C277        C  0.24877428  0.24586159  0.48075889     0.76600
C278        C  0.24280468  0.19156807  0.09171825     0.76900
C279        C  0.24624920  0.24946428  0.18959892     0.78100
C280        C  0.30262869  0.24075371  0.08929497     0.77100
C281        C  0.03415486  0.24951293  0.06037505    -0.03200
C282        C  0.03991944  0.25899350  0.09372527    -0.05800
C283        C  0.05966154  0.25825326  0.10583697    -0.20900
C284        C  0.07374984  0.24803592  0.08473099     0.24800
C285        C  0.06738981  0.23693267  0.05361392    -0.18500
C286        C  0.04789060  0.23789692  0.04131014    -0.08400
C287        C  0.09510724  0.24986372  0.09389556    -0.18700
C288        C  0.10863097  0.24988705  0.06637377    -0.23500
C289        C  0.13028887  0.25032873  0.07198755     0.26900
C290        C  0.14195073  0.24241721  0.04344406    -0.20300
C291        C  0.16242360  0.24241739  0.04649969    -0.09900
C292        C  0.17182906  0.25067457  0.07796885    -0.10500
C293        C  0.16023373  0.25904677  0.10637557    -0.03400
C294        C  0.13956710  0.25876025  0.10356323    -0.18500
H295        H  0.02952967  0.26800694  0.10893336     0.10600
H296        H  0.06413914  0.26657745  0.13036872     0.10600
H297        H  0.07761319  0.22799417  0.53787507     0.10300
H298        H  0.04369274  0.23011281  0.51595175     0.11400
H299        H  0.09956988  0.25163823  0.12299523     0.11500
H300        H  0.10361974  0.24876291  0.53744321     0.13400
H301        H  0.13516191  0.23598370  0.51870917     0.09900
H302        H  0.17091137  0.23600756  0.52398893     0.12000
H303        H  0.16712088  0.26555670  0.13091346     0.08600
H304        H  0.13098737  0.26537394  0.12568246     0.11400
C305        C  0.16909606  0.25027659  0.33483274    -0.03200
C306        C  0.15863807  0.23485588  0.31741084    -0.05800
C307        C  0.13800544  0.23469690  0.31690785    -0.20900
C308        C  0.12727624  0.25015028  0.33296383     0.24800
C309        C  0.13766734  0.26577264  0.34997754    -0.18500
C310        C  0.15837023  0.26576372  0.35109224    -0.08400
C311        C  0.10540841  0.24848289  0.33471353    -0.18700
C312        C  0.09306216  0.26403474  0.33568023    -0.23500
C313        C  0.07152875  0.26193592  0.34314050     0.26900
C314        C  0.05823778  0.27654850  0.33088120    -0.20300
C315        C  0.03842126  0.27622167  0.34230757    -0.09900
C316        C  0.03176061  0.26148334  0.36683592    -0.10500
C317        C  0.04481859  0.24646506  0.37768364    -0.03400
C318        C  0.06440098  0.24661011  0.36592010    -0.18500
H319        H  0.16640939  0.22266023  0.30475152     0.10600
H320        H  0.13037064  0.22236951  0.30407809     0.10600
H321        H  0.12984878  0.27766174  0.36350549     0.10300
H322        H  0.16598012  0.27786347  0.36470931     0.11400
H323        H  0.09927847  0.23369749  0.33503143     0.11500
H324        H  0.09891145  0.27878314  0.33165920     0.13400
H325        H  0.06337296  0.28860620  0.31356555     0.09900
H326        H  0.02872881  0.28816716  0.33413802     0.12000
H327        H  0.04009112  0.23507926  0.39697869     0.08600
H328        H  0.07418074  0.23536928  0.37681861     0.11400
C329        C  0.24076016  0.16979336  0.09533342    -0.03200
C330        C  0.25331922  0.15915707  0.11952421    -0.05800
C331        C  0.25220413  0.13859497  0.12162858    -0.20900
C332        C  0.23837187  0.12805995  0.10003904     0.24800
C333        C  0.22539256  0.13873885  0.07654680    -0.18500
C334        C  0.22658967  0.15934048  0.07427946    -0.08400
C335        C  0.23928621  0.10604839  0.10030961    -0.18700
C336        C  0.22469812  0.09420018  0.08761634    -0.23500
C337        C  0.22709576  0.07260136  0.08129816     0.26900
C338        C  0.21540384  0.06372000  0.05341357    -0.20300
C339        C  0.21882796  0.04430440  0.04242396    -0.09900
C340        C  0.23369879  0.03308132  0.05970978    -0.10500
C341        C  0.24440308  0.04129113  0.08972442    -0.03400
C342        C  0.24120060  0.06095754  0.10038980    -0.18500
H343        H  0.26438168  0.16668162  0.13627093     0.10600
H344        H  0.26246355  0.13084111  0.13979081     0.10600
H345        H  0.21479272  0.13132492  0.05869403     0.10300
H346        H  0.21662804  0.16705532  0.55548429     0.11400
H347        H  0.25304463  0.09950859  0.10976042     0.11500
H348        H  0.21091848  0.10069893  0.07822915     0.13400
H349        H  0.20430921  0.07219297  0.53849453     0.09900
H350        H  0.21042758  0.03830029  0.51910912     0.12000
H351        H  0.25606133  0.03295240  0.10325497     0.08600
H352        H  0.25010298  0.06706959  0.12283378     0.11400
C353        C  0.25299942  0.03677310  0.36904461    -0.03200
C354        C  0.26664863  0.04217218  0.34141309    -0.05800
C355        C  0.26781044  0.06179349  0.32910655    -0.20900
C356        C  0.25501799  0.07615502  0.34348806     0.24800
C357        C  0.24081736  0.07045904  0.36993471    -0.18500
C358        C  0.23988503  0.05104046  0.38260070    -0.08400
C359        C  0.25781345  0.09724917  0.33352253    -0.18700
C360        C  0.24275992  0.11016899  0.33323442    -0.23500
C361        C  0.24521786  0.13180137  0.32916087     0.26900
C362        C  0.22919107  0.14290950  0.31592080    -0.20300
C363        C  0.23003067  0.16346511  0.31549028    -0.09900
C364        C  0.24680407  0.17342742  0.32908520    -0.10500
C365        C  0.26301505  0.16232877  0.34186084    -0.03400
C366        C  0.26227926  0.14170258  0.34175694    -0.18500
H367        H  0.27712654  0.03152049  0.33096992     0.10600
H368        H  0.27900316  0.06586792  0.30899211     0.10600
H369        H  0.23107351  0.08117005  0.38244835     0.10300
H370        H  0.22931446  0.04731096  0.40413666     0.11400
H371        H  0.27260032  0.10222323  0.32675973     0.11500
H372        H  0.22779381  0.10469348  0.33636851     0.13400
H373        H  0.21581849  0.13564479  0.30642962     0.09900
H374        H  0.21727228  0.17156558  0.30554624     0.12000
H375        H  0.27616106  0.16958792  0.35242485     0.08600
H376        H  0.27473154  0.13361649  0.35300148     0.11400
C377        C  0.45926080  0.24437657  0.29501615    -0.03200
C378        C  0.45596993  0.24379142  0.33393457    -0.05800
C379        C  0.43660989  0.24408934  0.34793336    -0.20900
C380        C  0.42036026  0.24531012  0.32327389     0.24800
C381        C  0.42374228  0.24542073  0.28452247    -0.18500
C382        C  0.44282137  0.24504971  0.27066565    -0.08400
C383        C  0.39982353  0.24592830  0.33754478    -0.18700
C384        C  0.38581436  0.25644052  0.31945293    -0.23500
C385        C  0.36438049  0.25587636  0.32766303     0.26900
C386        C  0.35244328  0.27079729  0.31248562    -0.20300
C387        C  0.33194355  0.26985790  0.31531912    -0.09900
C388        C  0.32281773  0.25388456  0.33334773    -0.10500
C389        C  0.33475794  0.23914319  0.34944974    -0.03400
C390        C  0.35535209  0.24007315  0.34653765    -0.18500
H391        H  0.46826972  0.24307890  0.35342957     0.10600
H392        H  0.43432265  0.24367313  0.37795992     0.10600
H393        H  0.41158584  0.24555398  0.26464765     0.10300
H394        H  0.44456078  0.24526779  0.24049872     0.11400
H395        H  0.39632839  0.23774110  0.36280515     0.11500
H396        H  0.39027886  0.26596726  0.29648489     0.13400
H397        H  0.35899688  0.28306849  0.29759458     0.09900
H398        H  0.32322777  0.28152470  0.30279277     0.12000
H399        H  0.32816924  0.22658902  0.36336116     0.08600
H400        H  0.36401634  0.22805334  0.35779767     0.11400
C401        C  0.46343673  0.23751708  0.10511999    -0.03200
C402        C  0.45596824  0.25195949  0.08073340    -0.05800
C403        C  0.43591847  0.25186430  0.07059347    -0.20900
C404        C  0.42307056  0.23738291  0.08472944     0.24800
C405        C  0.43104104  0.22204515  0.10663811    -0.18500
C406        C  0.45093849  0.22227204  0.11702615    -0.08400
C407        C  0.40145701  0.23908753  0.07727893    -0.18700
C408        C  0.38769784  0.23160816  0.10060435    -0.23500
C409        C  0.36595848  0.23402084  0.09576201     0.26900
C410        C  0.35340567  0.22184823  0.11679117    -0.20300
C411        C  0.33291373  0.22393386  0.11449692    -0.09900
C412        C  0.32439910  0.23833654  0.09113341    -0.10500
C413        C  0.33691950  0.25057672  0.07009577    -0.03400
C414        C  0.35745415  0.24851367  0.07244666    -0.18500
H415        H  0.46526431  0.26403013  0.07169614     0.10600
H416        H  0.43022751  0.26370834  0.05326519     0.10600
H417        H  0.42192148  0.21009318  0.11666813     0.10300
H418        H  0.45642549  0.21095077  0.13582580     0.11400
H419        H  0.39695660  0.24759157  0.05294468     0.11500
H420        H  0.39246380  0.22344755  0.12522209     0.13400
H421        H  0.35948753  0.21066010  0.13520906     0.09900
H422        H  0.32374584  0.21426239  0.13115251     0.12000
H423        H  0.33085961  0.26196442  0.05213031     0.08600
H424        H  0.36647555  0.25860731  0.05655488     0.11400
C425        C  0.67155041  0.25098809  0.05842568    -0.03200
C426        C  0.66105394  0.23661595  0.03801625    -0.05800
C427        C  0.64044938  0.23555439  0.03991932    -0.20900
C428        C  0.62980447  0.24892417  0.06189080     0.24800
C429        C  0.64032006  0.26332709  0.08231199    -0.18500
C430        C  0.66090335  0.26436173  0.08047863    -0.08400
C431        C  0.60798759  0.24656648  0.06490165    -0.18700
C432        C  0.59587652  0.26122164  0.07556953    -0.23500
C433        C  0.57462267  0.25841938  0.08431632     0.26900
C434        C  0.56608323  0.27119019  0.11043998    -0.20300
C435        C  0.54678830  0.26822688  0.12253451    -0.09900
C436        C  0.53535834  0.25273038  0.10803688    -0.10500
C437        C  0.54333962  0.24058732  0.08019237    -0.03400
C438        C  0.56291298  0.24331328  0.06853255    -0.18500
H439        H  0.66876598  0.22602436  0.02084864     0.10600
H440        H  0.63278888  0.22417463  0.02425995     0.10600
H441        H  0.63286170  0.27348213  0.10070150     0.10300
H442        H  0.66849419  0.27552014  0.09680628     0.11400
H443        H  0.60191679  0.23206679  0.05920020     0.11500
H444        H  0.60198135  0.27573789  0.08090234     0.13400
H445        H  0.57466904  0.28302128  0.12281988     0.09900
H446        H  0.54092918  0.27774495  0.14411279     0.12000
H447        H  0.53480294  0.22844016  0.06889001     0.08600
H448        H  0.56883795  0.23348974  0.04760424     0.11400
C449        C  0.82484813  0.25820828  0.06360288    -0.03200
C450        C  0.83478064  0.26887960  0.03574088    -0.05800
C451        C  0.85515207  0.27149832  0.03767180    -0.20900
C452        C  0.86625082  0.26363529  0.06751306     0.24800
C453        C  0.85636606  0.25304007  0.09574441    -0.18500
C454        C  0.83584957  0.25033930  0.09371390    -0.08400
C455        C  0.88800481  0.26658635  0.06661476    -0.18700
C456        C  0.90109620  0.26095239  0.09324915    -0.23500
C457        C  0.92269157  0.26338781  0.08739884     0.26900
C458        C  0.93589779  0.24913543  0.10126568    -0.20300
C459        C  0.95570501  0.24923918  0.09002718    -0.09900
C460        C  0.96241835  0.26360859  0.06478675    -0.10500
C461        C  0.94969479  0.27885930  0.05389600    -0.03400
C462        C  0.93013086  0.27894415  0.06553072    -0.18500
H463        H  0.82682530  0.27519015  0.51218449     0.10600
H464        H  0.86229484  0.27970688  0.51547727     0.10600
H465        H  0.86427132  0.24665904  0.11919023     0.10300
H466        H  0.82859982  0.24214961  0.11577661     0.11400
H467        H  0.89363169  0.27333476  0.04121076     0.11500
H468        H  0.89626535  0.25313853  0.11807197     0.13400
H469        H  0.93060636  0.23720233  0.11872090     0.09900
H470        H  0.96530662  0.23731622  0.09870753     0.12000
H471        H  0.95468212  0.29026408  0.53488459     0.08600
H472        H  0.92066979  0.29077909  0.55597794     0.11400
C473        C  0.67111830  0.24910830  0.30631216    -0.03200
C474        C  0.66153959  0.23689391  0.28012755    -0.05800
C475        C  0.64109815  0.23443882  0.28094425    -0.20900
C476        C  0.62959560  0.24406666  0.30791334     0.24800
C477        C  0.63913624  0.25643484  0.33409169    -0.18500
C478        C  0.65966830  0.25894117  0.33319109    -0.08400
C479        C  0.60784907  0.24070749  0.30681027    -0.18700
C480        C  0.59450374  0.24889036  0.33002225    -0.23500
C481        C  0.57290209  0.24581054  0.32455579     0.26900
C482        C  0.55967946  0.26099318  0.33361902    -0.20300
C483        C  0.53972466  0.25967436  0.32310101    -0.09900
C484        C  0.53279714  0.24307102  0.30367286    -0.10500
C485        C  0.54560630  0.22725734  0.29745056    -0.03400
C486        C  0.56538961  0.22846293  0.30823712    -0.18500
H487        H  0.66984618  0.22910147  0.25899864     0.10600
H488        H  0.63424000  0.22486492  0.26032757     0.10600
H489        H  0.63099879  0.26419342  0.35537529     0.10300
H490        H  0.66659513  0.26843412  0.35383622     0.11400
H491        H  0.60249372  0.23137856  0.28421414     0.11500
H492        H  0.59913412  0.25922784  0.35147064     0.13400
H493        H  0.56503358  0.27439300  0.34666557     0.09900
H494        H  0.53010289  0.27214836  0.32764506     0.12000
H495        H  0.54049703  0.21433407  0.28242090     0.08600
H496        H  0.57488538  0.21606476  0.30242390     0.11400
C497        C  0.95884253  0.27256677  0.37329248    -0.03200
C498        C  0.94453983  0.28223468  0.39483385    -0.05800
C499        C  0.92468459  0.28160691  0.38463949    -0.20900
C500        C  0.91850887  0.27152002  0.35239293     0.24800
C501        C  0.93287971  0.26296738  0.32911623    -0.18500
C502        C  0.95296606  0.26351668  0.33953569    -0.08400
C503        C  0.89694260  0.26857195  0.34689854    -0.18700
C504        C  0.88790521  0.26559036  0.31365728    -0.23500
C505        C  0.86613391  0.26286285  0.31121088     0.26900
C506        C  0.85542948  0.27127701  0.28142639    -0.20300
C507        C  0.83481760  0.26955547  0.27977110    -0.09900
C508        C  0.82454777  0.25897797  0.30749229    -0.10500
C509        C  0.83539108  0.25006204  0.33665611    -0.03400
C510        C  0.85590678  0.25202048  0.33856666    -0.18500
H511        H  0.94859624  0.28945915  0.42085614     0.10600
H512        H  0.91397588  0.28840110  0.40294872     0.10600
H513        H  0.92855437  0.25485982  0.30426592     0.10300
H514        H  0.96363827  0.25574873  0.32264529     0.11400
H515        H  0.88786588  0.26965446  0.37183767     0.11500
H516        H  0.89631122  0.26638421  0.28787886     0.13400
H517        H  0.86298807  0.27958694  0.25989111     0.09900
H518        H  0.82693027  0.27650986  0.25680916     0.12000
H519        H  0.82799873  0.24174199  0.35837607     0.08600
H520        H  0.86378221  0.24494203  0.36139967     0.11400
C521        C  0.75071858  0.03975861  0.02741702    -0.03200
C522        C  0.73334795  0.04516194  0.04586561    -0.05800
C523        C  0.73060720  0.06473380  0.05744853    -0.20900
C524        C  0.74537294  0.07898332  0.05152443     0.24800
C525        C  0.76307872  0.07316773  0.03450075    -0.18500
C526        C  0.76562696  0.05382682  0.02240462    -0.08400
C527        C  0.74130338  0.10014962  0.05905306    -0.18700
C528        C  0.75576709  0.11326730  0.06648640    -0.23500
C529        C  0.75286491  0.13496755  0.06693265     0.26900
C530        C  0.76629225  0.14669943  0.08707738    -0.20300
C531        C  0.76527554  0.16725295  0.08529163    -0.09900
C532        C  0.75095376  0.17660912  0.06277646    -0.10500
C533        C  0.73745106  0.16485102  0.04263211    -0.03400
C534        C  0.73835832  0.14425773  0.04472695    -0.18500
H535        H  0.72153150  0.03457683  0.04937609     0.10600
H536        H  0.71674189  0.06888772  0.07007198     0.10600
H537        H  0.77456214  0.08375556  0.02838030     0.10300
H538        H  0.77903073  0.04998454  0.00776495     0.11400
H539        H  0.72610145  0.10509426  0.05723470     0.11500
H540        H  0.77061528  0.10794663  0.07194452     0.13400
H541        H  0.77776204  0.13992031  0.10400172     0.09900
H542        H  0.77592090  0.17580814  0.10118253     0.12000
H543        H  0.72626153  0.17155498  0.02496232     0.08600
H544        H  0.72813541  0.13569136  0.02792509     0.11400
C545        C  0.76327339  0.03999480  0.33466112    -0.03200
C546        C  0.77806492  0.04667708  0.31036317    -0.05800
C547        C  0.77850735  0.06649354  0.29886371    -0.20900
C548        C  0.76391561  0.07979361  0.31067356     0.24800
C549        C  0.74850694  0.07268612  0.33319827    -0.18500
C550        C  0.74827461  0.05308598  0.34514895    -0.08400
C551        C  0.76610582  0.10128963  0.30285220    -0.18700
C552        C  0.75055585  0.11362137  0.30066612    -0.23500
C553        C  0.75221091  0.13547195  0.29829440     0.26900
C554        C  0.73662112  0.14610815  0.28200138    -0.20300
C555        C  0.73654980  0.16670782  0.28252791    -0.09900
C556        C  0.75190870  0.17725224  0.30011360    -0.10500
C557        C  0.76766902  0.16662765  0.31616483    -0.03400
C558        C  0.76788011  0.14595309  0.31511491    -0.18500
H559        H  0.78996119  0.03696435  0.30234890     0.10600
H560        H  0.79061442  0.07160437  0.28172599     0.10600
H561        H  0.73725212  0.08248626  0.34365592     0.10300
H562        H  0.73678586  0.04834612  0.36412413     0.11400
H563        H  0.78091923  0.10709309  0.29937402     0.11500
H564        H  0.73575424  0.10747229  0.30051724     0.13400
H565        H  0.72428166  0.13842036  0.26920113     0.09900
H566        H  0.72415645  0.17436636  0.26994962     0.12000
H567        H  0.77973583  0.17428372  0.32991002     0.08600
H568        H  0.77991090  0.13823179  0.32874440     0.11400
C569        C  0.74555211  0.33073990  0.31503018    -0.03200
C570        C  0.72889844  0.34057421  0.32884138    -0.05800
C571        C  0.72831333  0.36118522  0.32980699    -0.20900
C572        C  0.74451953  0.37243703  0.31793942     0.24800
C573        C  0.76139038  0.36260596  0.30494239    -0.18500
C574        C  0.76183688  0.34199061  0.30330569    -0.08400
C575        C  0.74253907  0.39423733  0.31562928    -0.18700
C576        C  0.75789808  0.40689210  0.31729762    -0.23500
C577        C  0.75590420  0.42824225  0.30820417     0.26900
C578        C  0.76944466  0.44198222  0.32302582    -0.20300
C579        C  0.76934831  0.46168215  0.31075721    -0.09900
C580        C  0.75598435  0.46777377  0.28280905    -0.10500
C581        C  0.74203613  0.45420455  0.26908989    -0.03400
C582        C  0.74192941  0.43474012  0.28164723    -0.18500
H583        H  0.71609116  0.33234468  0.33792897     0.10600
H584        H  0.71504671  0.36839016  0.33947443     0.10600
H585        H  0.77395414  0.37078607  0.29464330     0.10300
H586        H  0.77490432  0.33484442  0.29259851     0.11400
H587        H  0.72772792  0.40003502  0.31197399     0.11500
H588        H  0.77247791  0.40143148  0.32459311     0.13400
H589        H  0.78049726  0.43731121  0.34323267     0.09900
H590        H  0.78047291  0.47176512  0.32128016     0.12000
H591        H  0.73169544  0.45847021  0.24723662     0.08600
H592        H  0.73162445  0.42457509  0.26873300     0.11400
C593        C  0.74839179  0.32962675  0.04603835    -0.03200
C594        C  0.76475200  0.33885027  0.02945886    -0.05800
C595        C  0.76648323  0.35934780  0.02933307    -0.20900
C596        C  0.75173051  0.37114154  0.04496336     0.24800
C597        C  0.73494903  0.36201670  0.06027078    -0.18500
C598        C  0.73335758  0.34143332  0.06097187    -0.08400
C599        C  0.75548300  0.39256986  0.04903803    -0.18700
C600        C  0.74117078  0.40623426  0.05109139    -0.23500
C601        C  0.74545366  0.42692458  0.06199067     0.26900
C602        C  0.73356464  0.44235774  0.04843801    -0.20300
C603        C  0.73631471  0.46166902  0.06154627    -0.09900
C604        C  0.75059680  0.46562482  0.08924343    -0.10500
C605        C  0.76269434  0.45026078  0.10218720    -0.03400
C606        C  0.76025079  0.43117085  0.08860602    -0.18500
H607        H  0.77662449  0.33020673  0.01778164     0.10600
H608        H  0.77962671  0.36601759  0.01771447     0.10600
H609        H  0.72351351  0.37067530  0.07333073     0.10300
H610        H  0.72056465  0.33475901  0.07387053     0.11400
H611        H  0.77079844  0.39722683  0.05108124     0.11500
H612        H  0.72594227  0.40213785  0.04547108     0.13400
H613        H  0.72194176  0.43939085  0.02820613     0.09900
H614        H  0.72668765  0.47327012  0.05147563     0.12000
H615        H  0.77378589  0.45294694  0.12362545     0.08600
H616        H  0.76934053  0.41959225  0.10040914     0.11400
C617        C  0.75167814  0.67663270  0.07188900    -0.03200
C618        C  0.76192381  0.66693964  0.10085437    -0.05800
C619        C  0.76164131  0.64648680  0.10352624    -0.20900
C620        C  0.75126958  0.63502854  0.07723411     0.24800
C621        C  0.74082693  0.64462330  0.04820793    -0.18500
C622        C  0.74100549  0.66527160  0.04565713    -0.08400
C623        C  0.75221335  0.61327806  0.08183474    -0.18700
C624        C  0.74582484  0.59968976  0.05695318    -0.23500
C625        C  0.74902118  0.57833757  0.06420453     0.26900
C626        C  0.73468555  0.56438429  0.05357721    -0.20300
C627        C  0.73656672  0.54461600  0.06476343    -0.09900
C628        C  0.75283026  0.53870284  0.08660116    -0.10500
C629        C  0.76780941  0.55232508  0.09466174    -0.03400
C630        C  0.76607983  0.57184645  0.08317234    -0.18500
H631        H  0.77021120  0.67515984  0.12169868     0.10600
H632        H  0.76978924  0.63956590  0.12623132     0.10600
H633        H  0.73247782  0.63638990  0.02757304     0.10300
H634        H  0.73290084  0.67232044  0.02307234     0.11400
H635        H  0.75910322  0.60810200  0.10763033     0.11500
H636        H  0.73785822  0.60398596  0.03178275     0.13400
H637        H  0.72157057  0.56897623  0.03842131     0.09900
H638        H  0.72479276  0.53430626  0.05848898     0.12000
H639        H  0.78057065  0.54798822  0.11117542     0.08600
H640        H  0.77787946  0.58197866  0.09022386     0.11400
C641        C  0.75674998  0.82929634  0.06533354    -0.03200
C642        C  0.76761513  0.83789807  0.03620571    -0.05800
C643        C  0.76786714  0.85821852  0.03121123    -0.20900
C644        C  0.75747966  0.87069888  0.05532402     0.24800
C645        C  0.74682721  0.86228831  0.08515359    -0.18500
C646        C  0.74640092  0.84170406  0.08998075    -0.08400
C647        C  0.75786357  0.89211549  0.04643273    -0.18700
C648        C  0.75286080  0.90699735  0.06953948    -0.23500
C649        C  0.75489156  0.92796993  0.05737149     0.26900
C650        C  0.74201187  0.94247903  0.07103341    -0.20300
C651        C  0.74268439  0.96182248  0.05685447    -0.09900
C652        C  0.75620719  0.96682994  0.02869786    -0.10500
C653        C  0.76983135  0.95264697  0.01689659    -0.03400
C654        C  0.76940041  0.93359969  0.03140486    -0.18500
H655        H  0.77570163  0.82888721  0.01656950     0.10600
H656        H  0.77620375  0.86422367  0.50801657     0.10600
H657        H  0.73846633  0.87140587  0.10411062     0.10300
H658        H  0.73788142  0.83550992  0.11271934     0.11400
H659        H  0.76291467  0.89577694  0.01845284     0.11500
H660        H  0.74686878  0.90392783  0.09706752     0.13400
H661        H  0.73095102  0.93866079  0.09158036     0.09900
H662        H  0.73208851  0.97255322  0.06655136     0.12000
H663        H  0.78075297  0.95624385  0.49592163     0.08600
H664        H  0.78037332  0.92326774  0.02175015     0.11400
C665        C  0.76861306  0.54036114  0.27806921    -0.03200
C666        C  0.78236006  0.55289257  0.26094308    -0.05800
C667        C  0.78405095  0.57255855  0.27174320    -0.20900
C668        C  0.77172719  0.58041772  0.29934927     0.24800
C669        C  0.75848814  0.56768804  0.31786960    -0.18500
C670        C  0.75704985  0.54773586  0.30741783    -0.08400
C671        C  0.77302333  0.60201894  0.30654724    -0.18700
C672        C  0.75804364  0.61314867  0.31935358    -0.23500
C673        C  0.75867878  0.63516922  0.32011883     0.26900
C674        C  0.74590216  0.64541595  0.34400270    -0.20300
C675        C  0.74535363  0.66607015  0.34395699    -0.09900
C676        C  0.75746881  0.67701440  0.31968976    -0.10500
C677        C  0.77022293  0.66675929  0.29572434    -0.03400
C678        C  0.77077708  0.64615058  0.29578656    -0.18500
H679        H  0.79140109  0.54758985  0.23815524     0.10600
H680        H  0.79447035  0.58191196  0.25719104     0.10600
H681        H  0.74907399  0.57310609  0.33992382     0.10300
H682        H  0.74620359  0.53839346  0.32078825     0.11400
H683        H  0.78657848  0.60921448  0.29806032     0.11500
H684        H  0.74453538  0.60606731  0.32846258     0.13400
H685        H  0.73625351  0.63739930  0.36272261     0.09900
H686        H  0.73533537  0.67345334  0.36279300     0.12000
H687        H  0.77965640  0.67465855  0.27645074     0.08600
H688        H  0.78030799  0.63897425  0.27586148     0.11400
C689        C  0.77745634  0.96782684  0.33954151    -0.03200
C690        C  0.79165494  0.95586602  0.35709780    -0.05800
C691        C  0.79349741  0.93603182  0.34741144    -0.20900
C692        C  0.78081152  0.92750213  0.32071504     0.24800
C693        C  0.76737008  0.93976084  0.30135389    -0.18500
C694        C  0.76579997  0.95982595  0.31060470    -0.08400
C695        C  0.78154420  0.90569922  0.31572712    -0.18700
C696        C  0.76574221  0.89464281  0.30603235    -0.23500
C697        C  0.76541040  0.87262291  0.30739430     0.26900
C698        C  0.75061075  0.86250227  0.28743308    -0.20300
C699        C  0.74890380  0.84196685  0.28983704    -0.09900
C700        C  0.76182640  0.83098271  0.31273352    -0.10500
C701        C  0.77668767  0.84107749  0.33268700    -0.03400
C702        C  0.77846448  0.86161260  0.33012091    -0.18500
H703        H  0.80072378  0.96167991  0.37967150     0.10600
H704        H  0.80411223  0.92704153  0.36248439     0.10600
H705        H  0.75773861  0.93382875  0.27982385     0.10300
H706        H  0.75460706  0.96872605  0.29695530     0.11400
H707        H  0.79521158  0.89846757  0.32362120     0.11500
H708        H  0.75209628  0.90192664  0.29808308     0.13400
H709        H  0.74021820  0.87054599  0.27002637     0.09900
H710        H  0.73727523  0.83472248  0.27405712     0.12000
H711        H  0.78689255  0.83311886  0.35061100     0.08600
H712        H  0.78971061  0.86874333  0.34694545     0.11400
C713        C  0.68013186  0.75826963  0.32537185    -0.03200
C714        C  0.67084079  0.77570332  0.31362405    -0.05800
C715        C  0.65034557  0.77746222  0.31474586    -0.20900
C716        C  0.63851837  0.76184552  0.32740065     0.24800
C717        C  0.64780303  0.74442954  0.33979852    -0.18500
C718        C  0.66842233  0.74274310  0.33901906    -0.08400
C719        C  0.61672155  0.76395653  0.32362080    -0.18700
C720        C  0.60318725  0.75120522  0.33700975    -0.23500
C721        C  0.58200325  0.75216607  0.32560293     0.26900
C722        C  0.56739671  0.74357395  0.34827098    -0.20300
C723        C  0.54772982  0.74232160  0.33566748    -0.09900
C724        C  0.54251207  0.74933126  0.29986725    -0.10500
C725        C  0.55698222  0.75855739  0.27795528    -0.03400
C726        C  0.57642425  0.75989018  0.29048090    -0.18500
H727        H  0.67941974  0.78801658  0.30330644     0.10600
H728        H  0.64366581  0.79101556  0.30487051     0.10600
H729        H  0.63931945  0.73187287  0.34908534     0.10300
H730        H  0.67516470  0.72909352  0.34817650     0.11400
H731        H  0.61160134  0.77663015  0.30773267     0.11500
H732        H  0.60761900  0.73939830  0.35574742     0.13400
H733        H  0.57132404  0.73733700  0.37528744     0.09900
H734        H  0.53690726  0.73494977  0.35294201     0.12000
H735        H  0.55343139  0.76408801  0.25019223     0.08600
H736        H  0.58717517  0.76603024  0.27147893     0.11400
C737        C  0.54241706  0.73422896  0.11184918    -0.03200
C738        C  0.55676242  0.72235730  0.12923715    -0.05800
C739        C  0.57670107  0.72472844  0.12126132    -0.20900
C740        C  0.58296451  0.73892296  0.09538246     0.24800
C741        C  0.56857668  0.75000363  0.07584004    -0.18500
C742        C  0.54837511  0.74766017  0.08407878    -0.08400
C743        C  0.60458304  0.74269584  0.09293906    -0.18700
C744        C  0.61389190  0.75076119  0.06341002    -0.23500
C745        C  0.63577477  0.75306221  0.06334738     0.26900
C746        C  0.64640508  0.74907282  0.03059169    -0.20300
C747        C  0.66709820  0.74962628  0.03088547    -0.09900
C748        C  0.67755562  0.75476569  0.06370076    -0.10500
C749        C  0.66685329  0.75968175  0.09596841    -0.03400
C750        C  0.64621788  0.75870479  0.09589315    -0.18500
H751        H  0.55260586  0.71193878  0.15086306     0.10600
H752        H  0.58737148  0.71593553  0.13661059     0.10600
H753        H  0.57291609  0.76125597  0.05600370     0.10300
H754        H  0.53765188  0.75725836  0.07082806     0.11400
H755        H  0.61351856  0.73765753  0.11649653     0.11500
H756        H  0.60567758  0.75420517  0.03799798     0.13400
H757        H  0.63870742  0.74487430  0.00509179     0.09900
H758        H  0.67493115  0.74597137  0.00546219     0.12000
H759        H  0.67446397  0.76377476  0.12162185     0.08600
H760        H  0.63842983  0.76232551  0.12137743     0.11400
C761        C  0.32990018  0.74069299  0.07771166    -0.03200
C762        C  0.33797761  0.72300163  0.06420853    -0.05800
C763        C  0.35833910  0.71971320  0.06549834    -0.20900
C764        C  0.37124273  0.73415976  0.07946597     0.24800
C765        C  0.36329314  0.75202221  0.09244238    -0.18500
C766        C  0.34282025  0.75519714  0.09178123    -0.08400
C767        C  0.39262141  0.72941929  0.08309928    -0.18700
C768        C  0.40716457  0.74294500  0.08073294    -0.23500
C769        C  0.42832794  0.73820129  0.08817821     0.26900
C770        C  0.44327798  0.74962878  0.07160774    -0.20300
C771        C  0.46315982  0.74707913  0.08202037    -0.09900
C772        C  0.46832186  0.73335570  0.10985007    -0.10500
C773        C  0.45348004  0.72138650  0.12521402    -0.03400
C774        C  0.43375918  0.72368854  0.11444307    -0.18500
H775        H  0.32850967  0.71144154  0.05335508     0.10600
H776        H  0.36404042  0.70575435  0.05571059     0.10600
H777        H  0.37279842  0.76327788  0.10425519     0.10300
H778        H  0.33710085  0.76894728  0.10249127     0.11400
H779        H  0.39648432  0.71403901  0.08709453     0.11500
H780        H  0.40349985  0.75799832  0.07310082     0.13400
H781        H  0.43948311  0.76100198  0.05149635     0.09900
H782        H  0.47425769  0.75674799  0.07032464     0.12000
H783        H  0.45704695  0.71087592  0.14712725     0.08600
H784        H  0.42271066  0.71491071  0.12851882     0.11400
C785        C  0.25172637  0.82388270  0.07511522    -0.03200
C786        C  0.23808358  0.83337384  0.05131844    -0.05800
C787        C  0.23602247  0.85385727  0.05195313    -0.20900
C788        C  0.24763819  0.86545458  0.07606401     0.24800
C789        C  0.26137927  0.85603949  0.09984813    -0.18500
C790        C  0.26341224  0.83548046  0.09930557    -0.08400
C791        C  0.24470988  0.88720843  0.07583224    -0.18700
C792        C  0.25896778  0.90023214  0.08496695    -0.23500
C793        C  0.25664900  0.92180389  0.07911709     0.26900
C794        C  0.27286954  0.93264137  0.06621197    -0.20300
C795        C  0.27080502  0.95248107  0.05649437    -0.09900
C796        C  0.25265192  0.96209753  0.06074287    -0.10500
C797        C  0.23666714  0.95165895  0.07580195    -0.03400
C798        C  0.23859838  0.93159627  0.08473171    -0.18500
H799        H  0.22882650  0.82495737  0.03231860     0.10600
H800        H  0.22532552  0.86069292  0.03335601     0.10600
H801        H  0.27027633  0.86442774  0.11945161     0.10300
H802        H  0.27391360  0.82865192  0.11828417     0.11400
H803        H  0.23084243  0.89271195  0.06452587     0.11500
H804        H  0.27353911  0.89490074  0.09263336     0.13400
H805        H  0.28691952  0.92546896  0.06174122     0.09900
H806        H  0.28320825  0.96016812  0.04422663     0.12000
H807        H  0.22242065  0.95869025  0.07851036     0.08600
H808        H  0.22591341  0.92368267  0.09526633     0.11400
C809        C  0.33215687  0.73970422  0.33122497    -0.03200
C810        C  0.34024014  0.72595249  0.30630265    -0.05800
C811        C  0.36059126  0.72332369  0.30424110    -0.20900
C812        C  0.37352157  0.73430286  0.32698547     0.24800
C813        C  0.36548845  0.74777326  0.35273123    -0.18500
C814        C  0.34498909  0.75040541  0.35482429    -0.08400
C815        C  0.39507703  0.73180689  0.32071457    -0.18700
C816        C  0.40969835  0.73948755  0.34210676    -0.23500
C817        C  0.43089106  0.73760158  0.33169275     0.26900
C818        C  0.44446565  0.75210698  0.34331121    -0.20300
C819        C  0.46394338  0.75193178  0.33020208    -0.09900
C820        C  0.47004369  0.73727078  0.30516203    -0.10500
C821        C  0.45688878  0.72211852  0.29549356    -0.03400
C822        C  0.43765230  0.72207271  0.30905534    -0.18500
H823        H  0.33084797  0.71732906  0.28788493     0.10600
H824        H  0.36627609  0.71281360  0.28420984     0.10600
H825        H  0.37483033  0.75668526  0.37060261     0.10300
H826        H  0.33922147  0.76108588  0.37440818     0.11400
H827        H  0.39896953  0.72363534  0.29574135     0.11500
H828        H  0.40622807  0.74836032  0.36640691     0.13400
H829        H  0.43975072  0.76407955  0.36115074     0.09900
H830        H  0.47384086  0.76383599  0.33782840     0.12000
H831        H  0.46138580  0.71051743  0.27656859     0.08600
H832        H  0.42808816  0.71000897  0.30102841     0.11400
C833        C  0.26501076  0.96430706  0.37034341    -0.03200
C834        C  0.25477839  0.95818098  0.33804853    -0.05800
C835        C  0.25591065  0.93849145  0.32617270    -0.20900
C836        C  0.26731652  0.92466894  0.34627727     0.24800
C837        C  0.27874696  0.93138160  0.37684909    -0.18500
C838        C  0.27738408  0.95086133  0.38892905    -0.08400
C839        C  0.26651052  0.90341564  0.33535400    -0.18700
C840        C  0.27164393  0.88861648  0.35887538    -0.23500
C841        C  0.27010913  0.86722416  0.34996586     0.26900
C842        C  0.28119270  0.85394350  0.37173855    -0.20300
C843        C  0.27934229  0.83362104  0.36657037    -0.09900
C844        C  0.26617748  0.82597003  0.33962830    -0.10500
C845        C  0.25521232  0.83924596  0.31742219    -0.03400
C846        C  0.25712846  0.85965347  0.32252229    -0.18500
H847        H  0.24500201  0.96824515  0.32344143     0.10600
H848        H  0.24718223  0.93385473  0.30218084     0.10600
H849        H  0.28855343  0.92169163  0.39212567     0.10300
H850        H  0.28558748  0.95531189  0.41372018     0.11400
H851        H  0.26081228  0.89994906  0.30762135     0.11500
H852        H  0.27713656  0.89207358  0.38671566     0.13400
H853        H  0.29123120  0.85932197  0.39320366     0.09900
H854        H  0.28803911  0.82389412  0.38418004     0.12000
H855        H  0.24485391  0.83386718  0.29654191     0.08600
H856        H  0.24795977  0.86932422  0.30577318     0.11400
C857        C  0.04113837  0.73704845  0.02346235    -0.03200
C858        C  0.05468765  0.72572510  0.00321351    -0.05800
C859        C  0.07445782  0.72503434  0.01381379    -0.20900
C860        C  0.08131836  0.73560896  0.04499918     0.24800
C861        C  0.06756139  0.74594375  0.06705040    -0.18500
C862        C  0.04751517  0.74661205  0.05630826    -0.08400
C863        C  0.10307161  0.73715435  0.05008170    -0.18700
C864        C  0.11252720  0.74259088  0.08174319    -0.23500
C865        C  0.13441118  0.74456982  0.08259050     0.26900
C866        C  0.14523318  0.73832403  0.11410914    -0.20300
C867        C  0.16591624  0.73922135  0.11426024    -0.09900
C868        C  0.17615663  0.74682329  0.08316976    -0.10500
C869        C  0.16521621  0.75374210  0.05223332    -0.03400
C870        C  0.14462279  0.75257567  0.05188606    -0.18500
H871        H  0.05013478  0.71817167  0.47782263     0.10600
H872        H  0.08463546  0.71689692  0.49641011     0.10600
H873        H  0.07237883  0.75445269  0.09105953     0.10300
H874        H  0.03736577  0.75564163  0.07206655     0.11400
H875        H  0.11195947  0.73335246  0.02587483     0.11500
H876        H  0.10438054  0.74472473  0.10752037     0.13400
H877        H  0.13769984  0.73227631  0.13823090     0.09900
H878        H  0.17389129  0.73392521  0.13868364     0.12000
H879        H  0.17258495  0.75979049  0.02793686     0.08600
H880        H  0.13667240  0.75801557  0.02755202     0.11400
C881        C  0.96738913  0.73678760  0.02047536    -0.03200
C882        C  0.95382706  0.72548497  0.99972220    -0.05800
C883        C  0.93391184  0.72516790  0.00908105    -0.20900
C884        C  0.92690699  0.73615328  0.03945176     0.24800
C885        C  0.94064260  0.74651684  0.06195302    -0.18500
C886        C  0.96080934  0.74677626  0.05252732    -0.08400
C887        C  0.90510058  0.73805328  0.04324107    -0.18700
C888        C  0.89550143  0.74374857  0.07434948    -0.23500
C889        C  0.87361545  0.74608693  0.07428185     0.26900
C890        C  0.86261677  0.74049700  0.10578635    -0.20300
C891        C  0.84195392  0.74195308  0.10539794    -0.09900
C892        C  0.83190737  0.74955860  0.07384544    -0.10500
C893        C  0.84301797  0.75579209  0.04287646    -0.03400
C894        C  0.86358515  0.75397692  0.04299446    -0.18500
H895        H  0.95850579  0.71763850  0.47487978     0.10600
H896        H  0.92376303  0.71700100  0.49134343     0.10600
H897        H  0.93574835  0.75535961  0.08531781     0.10300
H898        H  0.97094013  0.75583075  0.06861960     0.11400
H899        H  0.89633317  0.73427723  0.01862422     0.11500
H900        H  0.90354750  0.74587135  0.10046361     0.13400
H901        H  0.86998729  0.73457273  0.13037346     0.09900
H902        H  0.83383565  0.73718628  0.12985123     0.12000
H903        H  0.83577371  0.76177698  0.51821287     0.08600
H904        H  0.87165872  0.75891161  0.01861538     0.11400
C905        C  0.18019505  0.75948922  0.32099315    -0.03200
C906        C  0.17240497  0.77670432  0.30466737    -0.05800
C907        C  0.15200471  0.77952433  0.30212424    -0.20900
C908        C  0.13893881  0.76503668  0.31501919     0.24800
C909        C  0.14666279  0.74776601  0.33124194    -0.18500
C910        C  0.16707828  0.74507061  0.33435360    -0.08400
C911        C  0.11740826  0.76895411  0.31405877    -0.18700
C912        C  0.10385602  0.75460261  0.30970081    -0.23500
C913        C  0.08235079  0.75780620  0.31469348     0.26900
C914        C  0.06887219  0.74465927  0.29800555    -0.20300
C915        C  0.04884501  0.74517335  0.30741861    -0.09900
C916        C  0.04212667  0.75854451  0.33438515    -0.10500
C917        C  0.05535760  0.77235505  0.34959475    -0.03400
C918        C  0.07524505  0.77211926  0.33966672    -0.18500
H919        H  0.18208336  0.78815650  0.29429406     0.10600
H920        H  0.14639763  0.79306043  0.29000393     0.10600
H921        H  0.13696095  0.73657267  0.34248251     0.10300
H922        H  0.17258452  0.73168685  0.34720892     0.11400
H923        H  0.11265962  0.78414013  0.31690827     0.11500
H924        H  0.10870627  0.73976307  0.30316690     0.13400
H925        H  0.07400525  0.73340867  0.27892046     0.09900
H926        H  0.03895121  0.73416078  0.29587289     0.12000
H927        H  0.05049307  0.78264250  0.37079958     0.08600
H928        H  0.08519178  0.78221431  0.35373924     0.11400
C929        C  0.83307142  0.75363277  0.31758584    -0.03200
C930        C  0.84354226  0.76186221  0.34791235    -0.05800
C931        C  0.86409006  0.76098723  0.34927950    -0.20900
C932        C  0.87468673  0.75223223  0.32009520     0.24800
C933        C  0.86434125  0.74441581  0.28920047    -0.18500
C934        C  0.84368932  0.74503673  0.28805646    -0.08400
C935        C  0.89627307  0.74995751  0.32476162    -0.18700
C936        C  0.90920318  0.74867919  0.29635393    -0.23500
C937        C  0.93048687  0.74596847  0.30455056     0.26900
C938        C  0.94478893  0.75734566  0.28608078    -0.20300
C939        C  0.96448684  0.75716997  0.29863235    -0.09900
C940        C  0.96994341  0.74550241  0.32957402    -0.10500
C941        C  0.95594289  0.73276013  0.34542059    -0.03400
C942        C  0.93645656  0.73295482  0.33301849    -0.18500
H943        H  0.83584314  0.76856271  0.37113466     0.10600
H944        H  0.87174857  0.76697522  0.37350445     0.10600
H945        H  0.87209548  0.73719603  0.26664506     0.10300
H946        H  0.83603447  0.73859137  0.26428422     0.11400
H947        H  0.90190293  0.74985262  0.35341134     0.11500
H948        H  0.90438532  0.75080719  0.26752607     0.13400
H949        H  0.94048833  0.76728566  0.26370010     0.09900
H950        H  0.97504151  0.76711040  0.28598663     0.12000
H951        H  0.95985536  0.72333498  0.36886363     0.08600
H952        H  0.92583518  0.72353093  0.34685179     0.11400
C953        C  0.24322101  0.32625094  0.33544315    -0.03200
C954        C  0.25119722  0.33623141  0.30449374    -0.05800
C955        C  0.24923640  0.35657288  0.30096429    -0.20900
C956        C  0.23952701  0.36757913  0.32845121     0.24800
C957        C  0.23192682  0.35779091  0.36003963    -0.18500
C958        C  0.23370473  0.33726177  0.36341328    -0.08400
C959        C  0.23638079  0.38885780  0.32109351    -0.18700
C960        C  0.23307698  0.40268871  0.34739790    -0.23500
C961        C  0.23033890  0.42363047  0.33628335     0.26900
C962        C  0.23902424  0.43888759  0.35735226    -0.20300
C963        C  0.23898991  0.45831389  0.34361963    -0.09900
C964        C  0.23018658  0.46261608  0.30874322    -0.10500
C965        C  0.22008686  0.44760118  0.28948504    -0.03400
C966        C  0.22004277  0.42839096  0.30317432    -0.18500
H967        H  0.25856171  0.32826925  0.28234569     0.10600
H968        H  0.25512947  0.36373144  0.27626425     0.10600
H969        H  0.22403081  0.36580241  0.38140223     0.10300
H970        H  0.22737539  0.32998993  0.38756444     0.11400
H971        H  0.23762221  0.39352298  0.29201666     0.11500
H972        H  0.23376394  0.39893838  0.37698724     0.13400
H973        H  0.24681081  0.43559066  0.38323918     0.09900
H974        H  0.24689366  0.46963330  0.35897460     0.12000
H975        H  0.21286965  0.45057010  0.26285806     0.08600
H976        H  0.21252209  0.41710091  0.28706254     0.11400
C977        C  0.24889888  0.67352856  0.32382357    -0.03200
C978        C  0.25877801  0.66368414  0.29486810    -0.05800
C979        C  0.25764384  0.64327262  0.29151842    -0.20900
C980        C  0.24683666  0.63199361  0.31719915     0.24800
C981        C  0.23694171  0.64170735  0.34643055    -0.18500
C982        C  0.23792298  0.66232515  0.34959756    -0.08400
C983        C  0.24614189  0.61032939  0.31115317    -0.18700
C984        C  0.24120405  0.59665575  0.33699514    -0.23500
C985        C  0.24231419  0.57519203  0.32841401     0.26900
C986        C  0.22918427  0.56180581  0.34525586    -0.20300
C987        C  0.22889068  0.54190390  0.33429791    -0.09900
C988        C  0.24177328  0.53523320  0.30640139    -0.10500
C989        C  0.25580259  0.54831580  0.29176454    -0.03400
C990        C  0.25623181  0.56794669  0.30287383    -0.18500
H991        H  0.26730986  0.67177322  0.27439599     0.10600
H992        H  0.26536838  0.63623493  0.26866205     0.10600
H993        H  0.22819114  0.63356976  0.36641504     0.10300
H994        H  0.23012269  0.66948119  0.37219046     0.11400
H995        H  0.25048756  0.60538688  0.28346981     0.11500
H996        H  0.23604391  0.60107695  0.36443967     0.13400
H997        H  0.21858044  0.56693185  0.36559028     0.09900
H998        H  0.21792737  0.53207362  0.34596603     0.12000
H999        H  0.26616565  0.54344846  0.27073372     0.08600
H1000       H  0.26732746  0.57747043  0.29081855     0.11400
C1001       C  0.24629163  0.53252147  0.11335688    -0.03200
C1002       C  0.26117703  0.53788714  0.08808893     0.01400
C1003       C  0.26263184  0.55746481  0.07535962    -0.20900
C1004       C  0.24923986  0.57184106  0.08775041     0.24800
C1005       C  0.23344653  0.56587758  0.11051121    -0.18500
C1006       C  0.23217670  0.54657032  0.12351512    -0.08400
C1007       C  0.25209867  0.59301997  0.07776949    -0.18700
C1008       C  0.24641755  0.60751037  0.10127078    -0.23500
C1009       C  0.24776425  0.62912419  0.09430193     0.26900
C1010       C  0.23831580  0.64159547  0.11988051    -0.20300
C1011       C  0.23907614  0.66200563  0.11582510    -0.09900
C1012       C  0.24945802  0.67066067  0.08610028    -0.10500
C1013       C  0.25892193  0.65825844  0.06020234    -0.03400
C1014       C  0.25807105  0.63766889  0.06418343    -0.18500
H1015       H  0.27227998  0.52729712  0.07998498     0.10600
H1016       H  0.27472651  0.56157548  0.05726238     0.10600
H1017       H  0.22219056  0.57618651  0.11904078     0.10300
H1018       H  0.22038151  0.54271011  0.14252784     0.11400
H1019       H  0.25938772  0.59649490  0.05161824     0.11500
H1020       H  0.24016754  0.60331885  0.12807622     0.13400
H1021       H  0.23025323  0.63551403  0.14335064     0.09900
H1022       H  0.23163277  0.67101479  0.13636536     0.12000
H1023       H  0.26708642  0.66445908  0.03700190     0.08600
H1024       H  0.26569330  0.62865984  0.04398028     0.11400
C1025       C  0.25269634  0.45944553  0.11909093    -0.03200
C1026       C  0.24378992  0.45460221  0.08464245    -0.05800
C1027       C  0.24365426  0.43500632  0.07213394    -0.20900
C1028       C  0.25289944  0.42012370  0.09331728     0.24800
C1029       C  0.26260104  0.42523772  0.12688205    -0.18500
C1030       C  0.26238608  0.44463973  0.13968188    -0.08400
C1031       C  0.25049732  0.39914766  0.08238101    -0.18700
C1032       C  0.26422174  0.38538252  0.09011516    -0.23500
C1033       C  0.26069812  0.36399159  0.08483418     0.26900
C1034       C  0.27646951  0.35171858  0.07508388    -0.20300
C1035       C  0.27389815  0.33128140  0.07304699    -0.09900
C1036       C  0.25562652  0.32267438  0.08188598    -0.10500
C1037       C  0.23983002  0.33499459  0.09161237    -0.03400
C1038       C  0.24228732  0.35545285  0.09279299    -0.18500
H1039       H  0.23598500  0.46570383  0.06855147     0.10600
H1040       H  0.23591144  0.43136620  0.04636985     0.10600
H1041       H  0.26943877  0.41409870  0.14438544     0.10300
H1042       H  0.26926240  0.44797280  0.16646805     0.11400
H1043       H  0.23690380  0.39487396  0.06822832     0.11500
H1044       H  0.27856736  0.38988641  0.10088234     0.13400
H1045       H  0.29084761  0.35796388  0.06929938     0.09900
H1046       H  0.28637843  0.32217078  0.06569274     0.12000
H1047       H  0.22558888  0.32879705  0.09860108     0.08600
H1048       H  0.22998594  0.36450904  0.10132297     0.11400
C1049       C  0.24979550  0.47894420  0.63654126     0.80200
N1050       N  0.24651159  0.47963542  0.67405687    -0.78100
C1051       C  0.24331607  0.49700290  0.69144768     0.82600
N1052       N  0.24339280  0.51384824  0.67120069    -0.78000
C1053       C  0.24660461  0.51354351  0.63367046     0.82700
N1054       N  0.24982616  0.49599382  0.61609972    -0.79800
C1055       C  0.23938304  0.51583044  0.78822263     0.80200
N1056       N  0.24169411  0.51494546  0.75048734    -0.78100
C1057       C  0.24014200  0.49767112  0.73200139     0.82600
N1058       N  0.23618859  0.48103465  0.75140277    -0.78000
C1059       C  0.23369831  0.48151176  0.78918777     0.82700
N1060       N  0.23538400  0.49901501  0.80786937    -0.79800
C1061       C  0.02282899  0.75562607  0.85228277     0.80200
N1062       N  0.00599793  0.75265448  0.83176514    -0.78100
C1063       C  0.98878314  0.74851333  0.84974301     0.82600
N1064       N  0.98863835  0.74721122  0.88770217    -0.78000
C1065       C  0.00525779  0.75004403  0.90806561     0.82700
N1066       N  0.02233080  0.75423558  0.89029758    -0.79800
C1067       C  0.98699480  0.74056130  0.50385743     0.80200
N1068       N  0.98756058  0.74447170  0.96651087    -0.78100
C1069       C  0.00490308  0.74711426  0.94875163     0.82600
N1070       N  0.02191874  0.74527546  0.96826981    -0.78000
C1071       C  0.02184569  0.74114046  0.50554054     0.82700
N1072       N  0.00426728  0.73889447  0.52374978    -0.79800
Zn1073     Zn  0.24269160  0.76975174  0.79791905     1.49700
Zn1074     Zn  0.23659346  0.73445780  0.85850364     1.49400
Zn1075     Zn  0.27068985  0.73221810  0.79713219     1.49100
Zn1076     Zn  0.27455886  0.76316072  0.86423867     1.49500
O1077       O  0.25603427  0.74996581  0.82963346    -1.84100
O1078       O  0.21322051  0.76807344  0.80558946    -0.74800
O1079       O  0.23914000  0.70489902  0.84855467    -0.74600
O1080       O  0.26599351  0.73797090  0.74220318    -0.74100
O1081       O  0.20875228  0.74293136  0.84471162    -0.74800
O1082       O  0.24755283  0.76502183  0.74212992    -0.74400
O1083       O  0.26264197  0.70419358  0.80562463    -0.75000
O1084       O  0.30291387  0.75465386  0.85540324    -0.74400
O1085       O  0.24046830  0.73870414  0.91451503    -0.75100
O1086       O  0.29977890  0.73381089  0.80782429    -0.74500
O1087       O  0.26773429  0.75698893  0.91832737    -0.75000
O1088       O  0.27316063  0.79279499  0.85747953    -0.74900
O1089       O  0.25144793  0.79752105  0.81136911    -0.74700
C1090       C  0.20185966  0.75666924  0.82398038     0.77100
C1091       C  0.25025057  0.69533472  0.82634848     0.77600
C1092       C  0.25670117  0.75146119  0.72475348     0.76600
C1093       C  0.31049642  0.74291947  0.83164905     0.76900
C1094       C  0.25369176  0.74754600  0.93374101     0.78100
C1095       C  0.26350575  0.80429819  0.83579838     0.77100
Zn1096     Zn  0.23575572  0.76310844  0.54712294     1.49700
Zn1097     Zn  0.23700907  0.73209718  0.61438810     1.49400
Zn1098     Zn  0.26832312  0.72907983  0.54773376     1.49100
Zn1099     Zn  0.27154065  0.76460561  0.60781131     1.49500
O1100       O  0.25323654  0.74731154  0.57937337    -1.84100
O1101       O  0.20689071  0.75741205  0.55762184    -0.74800
O1102       O  0.24122157  0.70294392  0.60672395    -0.74600
O1103       O  0.26427073  0.73510492  0.99246346    -0.74100
O1104       O  0.20779710  0.73729179  0.60672192    -0.74800
O1105       O  0.24086992  0.75806063  0.99189951    -0.74400
O1106       O  0.26109268  0.70046601  0.55773835    -0.75000
O1107       O  0.30039412  0.75740085  0.59687240    -0.74400
O1108       O  0.24386268  0.73866211  0.66821284    -0.75100
O1109       O  0.29741712  0.73173396  0.55858665    -0.74500
O1110       O  0.26724229  0.76163168  0.66428069    -0.75000
O1111       O  0.26626320  0.79349227  0.59545250    -0.74900
O1112       O  0.24051353  0.79206822  0.55654226    -0.74700
C1113       C  0.19808664  0.74725544  0.58257022     0.77100
C1114       C  0.25062051  0.69248816  0.58316570     0.77600
C1115       C  0.25283024  0.74680921  0.97482445     0.76600
C1116       C  0.30811067  0.74355020  0.57766816     0.76900
C1117       C  0.25585938  0.75068609  0.68359665     0.78100
C1118       C  0.25302207  0.80200450  0.57560716     0.77100
C1119       C  0.48781633  0.73402356  0.62879251     0.80200
N1120       N  0.50530305  0.73453763  0.60967173    -0.78100
C1121       C  0.52269896  0.73505700  0.62943758     0.82600
N1122       N  0.52232040  0.73579151  0.66740898    -0.78000
C1123       C  0.50513055  0.73570624  0.68621220     0.82700
N1124       N  0.48795855  0.73459370  0.66689640    -0.79800
C1125       C  0.52310719  0.74497792  0.78245474     0.80200
N1126       N  0.52244000  0.74217918  0.74482220    -0.78100
C1127       C  0.50533954  0.73779346  0.72704940     0.82600
N1128       N  0.48857048  0.73613657  0.74710908    -0.78000
C1129       C  0.48884296  0.73888507  0.78487117     0.82700
N1130       N  0.50617805  0.74337117  0.80274653    -0.79800
Zn1131     Zn  0.77273699  0.73740608  0.78637811     1.49700
Zn1132     Zn  0.77365402  0.77049680  0.85090204     1.49400
Zn1133     Zn  0.73999719  0.77148552  0.78780923     1.49100
Zn1134     Zn  0.73979280  0.73707744  0.85009612     1.49500
O1135       O  0.75655172  0.75411053  0.81883401    -1.84100
O1136       O  0.80180699  0.74305231  0.79394572    -0.74800
O1137       O  0.77043738  0.79969904  0.83924164    -0.74600
O1138       O  0.74287478  0.76524760  0.73243368    -0.74100
O1139       O  0.80220330  0.76427489  0.84130869    -0.74800
O1140       O  0.76615503  0.74219973  0.73180447    -0.74400
O1141       O  0.74759166  0.80020574  0.79437507    -0.75000
O1142       O  0.71076779  0.74307822  0.84168703    -0.74400
O1143       O  0.76827590  0.76548667  0.90618165    -0.75100
O1144       O  0.71135330  0.76839799  0.80206972    -0.74500
O1145       O  0.74542851  0.74190783  0.90503980    -0.75000
O1146       O  0.74480989  0.70801685  0.84036989    -0.74900
O1147       O  0.76832152  0.70839686  0.79738552    -0.74700
C1148       C  0.81121742  0.75368448  0.81747525     0.77100
C1149       C  0.75982549  0.80917021  0.81567996     0.77600
C1150       C  0.75411456  0.75352893  0.71469391     0.76600
C1151       C  0.70188750  0.75642673  0.82290496     0.76900
C1152       C  0.75680505  0.75353972  0.92305735     0.78100
C1153       C  0.75680565  0.69894756  0.81911908     0.77100
Zn1154     Zn  0.77269556  0.76870466  0.53848844     1.49700
Zn1155     Zn  0.73777142  0.73682935  0.53540474     1.49400
Zn1156     Zn  0.77045234  0.73604735  0.60182463     1.49100
Zn1157     Zn  0.73770332  0.77012235  0.60000161     1.49500
O1158       O  0.75455785  0.75296238  0.56890910    -1.84100
O1159       O  0.76816053  0.76431528  0.98281701    -0.74800
O1160       O  0.74144167  0.70760482  0.54614554    -0.74600
O1161       O  0.79991943  0.73978455  0.59459243    -0.74100
O1162       O  0.74433061  0.74179197  0.98087430    -0.74800
O1163       O  0.80151987  0.76245637  0.54986353    -0.74400
O1164       O  0.76384510  0.70769105  0.59197877    -0.75000
O1165       O  0.74228640  0.76507545  0.65565078    -0.74400
O1166       O  0.70874869  0.74335110  0.54215018    -0.75100
O1167       O  0.76494811  0.74144602  0.65624832    -0.74500
O1168       O  0.70865113  0.76514044  0.58864858    -0.75000
O1169       O  0.74355272  0.79913545  0.58985974    -0.74900
O1170       O  0.76783642  0.79741519  0.54841440    -0.74700
C1171       C  0.75647058  0.75318040  0.96438756     0.77100
C1172       C  0.75232216  0.69844929  0.56971279     0.77600
C1173       C  0.80998495  0.75071533  0.57281849     0.76600
C1174       C  0.75362188  0.75328349  0.67339655     0.76900
C1175       C  0.69947058  0.75448501  0.56474902     0.78100
C1176       C  0.75603765  0.80747980  0.56841121     0.77100
C1177       C  0.75191121  0.48499351  0.60781768     0.80200
N1178       N  0.75067118  0.50220520  0.58812657    -0.78100
C1179       C  0.75306996  0.51968667  0.60641355     0.82600
N1180       N  0.75618987  0.51984680  0.64406176    -0.78000
C1181       C  0.75682955  0.50283788  0.66377666     0.82700
N1182       N  0.75487345  0.48547889  0.64553274    -0.79800
C1183       C  0.76453263  0.52101244  0.76056945     0.80200
N1184       N  0.76295377  0.52037148  0.72259033    -0.78100
C1185       C  0.75908969  0.50324446  0.70467370     0.82600
N1186       N  0.75677296  0.48656664  0.72488064    -0.78000
C1187       C  0.75834788  0.48675458  0.76286094     0.82700
N1188       N  0.76224917  0.50409498  0.78100284    -0.79800
C1189       C  0.76500454  0.02087898  0.85449061     0.80200
N1190       N  0.77040364  0.00389921  0.83671193    -0.78100
C1191       C  0.77239690  0.98688536  0.85696092     0.82600
N1192       N  0.76905928  0.98704254  0.89445954    -0.78000
C1193       C  0.76364023  0.00378750  0.91207298     0.82700
N1194       N  0.76160432  0.02059801  0.89200304    -0.79800
C1195       C  0.75558588  0.98602827  0.50903046     0.80200
N1196       N  0.75190175  0.00323325  0.52744918    -0.78100
C1197       C  0.75257296  0.02064427  0.50831406     0.82600
N1198       N  0.75648870  0.02069647  0.97100880    -0.78000
C1199       C  0.75976436  0.00363779  0.95252528     0.82700
N1200       N  0.75954133  0.98642666  0.97171178    -0.79800
Zn1201     Zn  0.76345499  0.27239866  0.77556411     1.49700
Zn1202     Zn  0.76565172  0.23757005  0.83719321     1.49400
Zn1203     Zn  0.73017251  0.26919986  0.83940660     1.49100
Zn1204     Zn  0.73201385  0.23704503  0.77365807     1.49500
O1205       O  0.74785573  0.25408799  0.80653584    -1.84100
O1206       O  0.79278877  0.26833833  0.78415691    -0.74800
O1207       O  0.76013985  0.24105557  0.89281928    -0.74600
O1208       O  0.73426167  0.29869464  0.83258179    -0.74100
O1209       O  0.79411431  0.24531388  0.82843784    -0.74800
O1210       O  0.75768207  0.30074330  0.78942467    -0.74400
O1211       O  0.73543102  0.26261439  0.89410786    -0.75000
O1212       O  0.70290943  0.24048490  0.78353242    -0.74400
O1213       O  0.76268299  0.20840908  0.82439217    -0.75100
O1214       O  0.70144216  0.26281634  0.82885840    -0.74500
O1215       O  0.73859489  0.20831990  0.78187738    -0.75000
O1216       O  0.73697725  0.24306755  0.71895159    -0.74900
O1217       O  0.75776500  0.26849314  0.71984902    -0.74700
C1218       C  0.80267583  0.25742415  0.80651089     0.77100
C1219       C  0.74773331  0.25140483  0.91081205     0.77600
C1220       C  0.74583437  0.30891508  0.81222499     0.76600
C1221       C  0.69295308  0.25100064  0.80612630     0.76900
C1222       C  0.75110228  0.19913632  0.80220524     0.78100
C1223       C  0.74728491  0.25595739  0.70203638     0.77100
Zn1224     Zn  0.76493414  0.26883510  0.52344917     1.49700
Zn1225     Zn  0.73143916  0.27094880  0.58631839     1.49400
Zn1226     Zn  0.73178494  0.23541036  0.52582175     1.49100
Zn1227     Zn  0.76520678  0.23779569  0.59061835     1.49500
O1228       O  0.74821685  0.25320000  0.55662789    -1.84100
O1229       O  0.75937167  0.29769512  0.52915781    -0.74800
O1230       O  0.70258465  0.26451214  0.57736465    -0.74600
O1231       O  0.73600783  0.24023314  0.96980206    -0.74100
O1232       O  0.73589987  0.29964676  0.57207659    -0.74800
O1233       O  0.76040448  0.26220511  0.96892464    -0.74400
O1234       O  0.70279807  0.23977353  0.53660742    -0.75000
O1235       O  0.76147939  0.20862445  0.58173639    -0.74400
O1236       O  0.73690326  0.26779190  0.64239570    -0.75100
O1237       O  0.73810089  0.20675170  0.53782541    -0.74500
O1238       O  0.75856744  0.24320736  0.64470893    -0.75000
O1239       O  0.79418741  0.24466781  0.58435866    -0.74900
O1240       O  0.79363354  0.26535159  0.53613481    -0.74700
C1241       C  0.74769197  0.30785157  0.54909858     0.77100
C1242       C  0.69345794  0.25181944  0.55734721     0.77600
C1243       C  0.74811530  0.25110925  0.95197934     0.76600
C1244       C  0.75014604  0.19847099  0.56056006     0.76900
C1245       C  0.74762490  0.25575221  0.66090342     0.78100
C1246       C  0.80310497  0.25584831  0.56125023     0.77100
C1247       C  0.48250471  0.24030741  0.62459113     0.80200
N1248       N  0.48251727  0.23963564  0.66257070    -0.78100
C1249       C  0.49919470  0.24306070  0.68251302     0.82600
N1250       N  0.51612457  0.24723566  0.66431584    -0.78000
C1251       C  0.51648897  0.24791651  0.62623062     0.82700
N1252       N  0.49956970  0.24456159  0.60611208    -0.79800
C1253       C  0.51412406  0.24370980  0.78252393     0.80200
N1254       N  0.49619177  0.24423584  0.79978690    -0.78100
C1255       C  0.47933713  0.24403760  0.77850483     0.82600
N1256       N  0.48078152  0.24346308  0.74060674    -0.78000
C1257       C  0.49844856  0.24316339  0.72349391     0.82700
N1258       N  0.51511735  0.24323343  0.74449115    -0.79800
C1259       C  0.25406276  0.01741615  0.88802640     0.80200
N1260       N  0.25103029  0.01679444  0.92564153    -0.78100
C1261       C  0.25293900  0.99971903  0.94487647     0.82600
N1262       N  0.25779808  0.98309045  0.92637885    -0.78000
C1263       C  0.26060500  0.98325373  0.88875679     0.82700
N1264       N  0.25879980  0.00052264  0.86933161    -0.79800
C1265       C  0.24960250  0.98124830  0.54206514     0.80200
N1266       N  0.25285211  0.98220416  0.00463120    -0.78100
C1267       C  0.24970174  0.99909888  0.98541004     0.82600
N1268       N  0.24332708  0.01525374  0.00381712    -0.78000
C1269       C  0.24015692  0.01471294  0.54137045     0.82700
N1270       N  0.24324697  0.99758935  0.56076426    -0.79800
C1271       C  0.01293881  0.26342573  0.88719154     0.80200
N1272       N  0.99541363  0.26745153  0.86948260    -0.78100
C1273       C  0.97862581  0.26932114  0.89025173     0.82600
N1274       N  0.97964470  0.26722498  0.92809348    -0.78000
C1275       C  0.99689003  0.26314913  0.94560459     0.82700
N1276       N  0.01344692  0.26118540  0.92507390    -0.79800
C1277       C  0.98111119  0.26117713  0.54457338     0.80200
N1278       N  0.98089576  0.26342960  0.00673720    -0.78100
C1279       C  0.99746008  0.26073622  0.98648743     0.82600
N1280       N  0.01444881  0.25584726  0.00430082    -0.78000
C1281       C  0.01500576  0.25369058  0.54221582     0.82700
N1282       N  0.99824322  0.25631353  0.56251487    -0.79800
Zn1283     Zn  0.22901396  0.23365944  0.80311105     1.49700
Zn1284     Zn  0.26408934  0.23278628  0.86454838     1.49400
Zn1285     Zn  0.26171260  0.26729282  0.80338602     1.49100
Zn1286     Zn  0.22966165  0.26563878  0.86940900     1.49500
O1287       O  0.24609278  0.24983578  0.83533891    -1.84100
O1288       O  0.23423786  0.20483933  0.81185730    -0.74800
O1289       O  0.29274104  0.23938052  0.85442654    -0.74600
O1290       O  0.25715239  0.26200693  0.74803757    -0.74100
O1291       O  0.25967526  0.20401128  0.85151665    -0.74800
O1292       O  0.23399714  0.23877325  0.74799859    -0.74400
O1293       O  0.29080073  0.26412926  0.81382811    -0.75000
O1294       O  0.23442712  0.29498262  0.86164817    -0.74400
O1295       O  0.25971644  0.23620080  0.92055585    -0.75100
O1296       O  0.25480324  0.29549336  0.81315034    -0.74500
O1297       O  0.23578751  0.25859466  0.92389105    -0.75000
O1298       O  0.20036034  0.26103612  0.85898848    -0.74900
O1299       O  0.20020160  0.23886627  0.81321739    -0.74700
C1300       C  0.24700205  0.19523811  0.83082430     0.77100
C1301       C  0.30098436  0.25240185  0.83405063     0.77600
C1302       C  0.24566082  0.25025870  0.73065015     0.76600
C1303       C  0.24427725  0.30444276  0.83714016     0.76900
C1304       C  0.24803841  0.24688561  0.93957669     0.78100
C1305       C  0.19103071  0.25007478  0.83580355     0.77100
Zn1306     Zn  0.26692099  0.26095410  0.55398040     1.49700
Zn1307     Zn  0.23191542  0.26517407  0.61424228     1.49400
Zn1308     Zn  0.23105706  0.23004288  0.55318429     1.49100
Zn1309     Zn  0.26243415  0.22919015  0.62031894     1.49500
O1310       O  0.24805870  0.24639675  0.58539934    -1.84100
O1311       O  0.26508572  0.29031627  0.56351848    -0.74800
O1312       O  0.20273556  0.26159696  0.60308629    -0.74600
O1313       O  0.23670706  0.23464042  0.99785001    -0.74100
O1314       O  0.23952419  0.29330050  0.60179236    -0.74800
O1315       O  0.26118088  0.25656595  0.99846103    -0.74400
O1316       O  0.20280835  0.23763970  0.56069167    -0.75000
O1317       O  0.25432518  0.20070336  0.61413819    -0.74400
O1318       O  0.23583823  0.26144875  0.67039267    -0.75100
O1319       O  0.23319913  0.20080573  0.56628738    -0.74500
O1320       O  0.25709102  0.23656761  0.67417058    -0.75000
O1321       O  0.29183585  0.23096562  0.61179471    -0.74900
O1322       O  0.29506437  0.25263038  0.56547529    -0.74700
C1323       C  0.25324612  0.30096190  0.58228093     0.77100
C1324       C  0.19359757  0.25000369  0.58085640     0.77600
C1325       C  0.24877450  0.24586025  0.98075884     0.76600
C1326       C  0.24280467  0.19156925  0.59171662     0.76900
C1327       C  0.24624923  0.24946488  0.68959907     0.78100
C1328       C  0.30262866  0.24075488  0.58929532     0.77100
C1329       C  0.03415502  0.24951183  0.56037327    -0.03200
C1330       C  0.03991900  0.25899055  0.59372579    -0.05800
C1331       C  0.05966100  0.25825024  0.60583797    -0.20900
C1332       C  0.07374982  0.24803464  0.58473022     0.24800
C1333       C  0.06739044  0.23693305  0.55361053    -0.18500
C1334       C  0.04789132  0.23789739  0.54130629    -0.08400
C1335       C  0.09510710  0.24986255  0.59389576    -0.18700
C1336       C  0.10863093  0.24988816  0.56637417    -0.23500
C1337       C  0.13028879  0.25032981  0.57198831     0.26900
C1338       C  0.14195082  0.24242005  0.54344333    -0.20300
C1339       C  0.16242369  0.24242036  0.54649912    -0.09900
C1340       C  0.17182895  0.25067591  0.57797005    -0.10500
C1341       C  0.16023344  0.25904628  0.60637845    -0.03400
C1342       C  0.13956681  0.25875961  0.60356587    -0.18500
H1343       H  0.02952879  0.26800268  0.60893560     0.10600
H1344       H  0.06413811  0.26657307  0.63037175     0.10600
H1345       H  0.07761212  0.22799254  0.03788000     0.10300
H1346       H  0.04369149  0.23011098  0.01595737     0.11400
H1347       H  0.09956956  0.25163517  0.62299595     0.11500
H1348       H  0.10361966  0.24875993  0.03744316     0.13400
H1349       H  0.13516168  0.23597959  0.01871125     0.09900
H1350       H  0.17091113  0.23600314  0.02399075     0.12000
H1351       H  0.16712047  0.26555486  0.63091776     0.08600
H1352       H  0.13098687  0.26537184  0.62568643     0.11400
C1353       C  0.16909631  0.25027540  0.83483320    -0.03200
C1354       C  0.15863838  0.23485466  0.81741123    -0.05800
C1355       C  0.13800575  0.23469554  0.81690842    -0.20900
C1356       C  0.12727647  0.25014879  0.83296462     0.24800
C1357       C  0.13766751  0.26577115  0.84997851    -0.18500
C1358       C  0.15837040  0.26576237  0.85109304    -0.08400
C1359       C  0.10540863  0.24848139  0.83471416    -0.18700
C1360       C  0.09306243  0.26403328  0.83568116    -0.23500
C1361       C  0.07152897  0.26193460  0.84314113     0.26900
C1362       C  0.05823835  0.27654774  0.83088301    -0.20300
C1363       C  0.03842184  0.27622114  0.84230939    -0.09900
C1364       C  0.03176085  0.26148242  0.86683656    -0.10500
C1365       C  0.04481843  0.24646357  0.87768304    -0.03400
C1366       C  0.06440083  0.24660840  0.86591943    -0.18500
H1367       H  0.16640974  0.22265911  0.80475170     0.10600
H1368       H  0.13037099  0.22236814  0.80407857     0.10600
H1369       H  0.12984891  0.27766015  0.86350665     0.10300
H1370       H  0.16598024  0.27786212  0.86471024     0.11400
H1371       H  0.09927865  0.23369601  0.83503159     0.11500
H1372       H  0.09891181  0.27878167  0.83166059     0.13400
H1373       H  0.06337380  0.28860570  0.81356831     0.09900
H1374       H  0.02872969  0.28816703  0.83414088     0.12000
H1375       H  0.04009066  0.23507747  0.89697719     0.08600
H1376       H  0.07418030  0.23536708  0.87681694     0.11400
C1377       C  0.24076031  0.16979450  0.59533080    -0.03200
C1378       C  0.25332024  0.15915786  0.61951931    -0.05800
C1379       C  0.25220517  0.13859574  0.62162294    -0.20900
C1380       C  0.23837201  0.12806103  0.60003490     0.24800
C1381       C  0.22539189  0.13874026  0.57654484    -0.18500
C1382       C  0.22658903  0.15934192  0.57427820    -0.08400
C1383       C  0.23928610  0.10604946  0.60030495    -0.18700
C1384       C  0.22469762  0.09420145  0.58761267    -0.23500
C1385       C  0.22709491  0.07260262  0.58129449     0.26900
C1386       C  0.21540322  0.06372153  0.55340931    -0.20300
C1387       C  0.21882686  0.04430575  0.54242030    -0.09900
C1388       C  0.23369699  0.03308224  0.55970735    -0.10500
C1389       C  0.24440107  0.04129188  0.58972241    -0.03400
C1390       C  0.24119909  0.06095847  0.60038715    -0.18500
H1391       H  0.26438337  0.16668218  0.63626484     0.10600
H1392       H  0.26246523  0.13084165  0.63978343     0.10600
H1393       H  0.21479129  0.13132661  0.55869329     0.10300
H1394       H  0.21662937  0.16705360  0.05548382     0.11400
H1395       H  0.25304464  0.09950939  0.60975462     0.11500
H1396       H  0.21091789  0.10070033  0.57822628     0.13400
H1397       H  0.20430932  0.07219112  0.03849960     0.09900
H1398       H  0.21042847  0.03829877  0.01911315     0.12000
H1399       H  0.25605882  0.03295283  0.60325385     0.08600
H1400       H  0.25010128  0.06707040  0.62283153     0.11400
C1401       C  0.25300044  0.03677320  0.86904567    -0.03200
C1402       C  0.26664954  0.04217214  0.84141386    -0.05800
C1403       C  0.26781140  0.06179338  0.82910714    -0.20900
C1404       C  0.25501904  0.07615498  0.84348866     0.24800
C1405       C  0.24081850  0.07045916  0.86993561    -0.18500
C1406       C  0.23988618  0.05104064  0.88260191    -0.08400
C1407       C  0.25781453  0.09724904  0.83352279    -0.18700
C1408       C  0.24276098  0.11016878  0.83323396    -0.23500
C1409       C  0.24521897  0.13180109  0.82916007     0.26900
C1410       C  0.22919242  0.14290911  0.81591866    -0.20300
C1411       C  0.23003196  0.16346473  0.81548808    -0.09900
C1412       C  0.24680507  0.17342711  0.82908413    -0.10500
C1413       C  0.26301583  0.16232853  0.84186103    -0.03400
C1414       C  0.26228010  0.14170236  0.84175728    -0.18500
H1415       H  0.27712733  0.03152036  0.83097053     0.10600
H1416       H  0.27900405  0.06586772  0.80899249     0.10600
H1417       H  0.23107474  0.08117027  0.88244921     0.10300
H1418       H  0.22931573  0.04731123  0.90413811     0.11400
H1419       H  0.27260145  0.10222311  0.82676029     0.11500
H1420       H  0.22779484  0.10469323  0.83636775     0.13400
H1421       H  0.21582007  0.13564431  0.80642660     0.09900
H1422       H  0.21727372  0.17156512  0.80554312     0.12000
H1423       H  0.27616162  0.16958775  0.85242597     0.08600
H1424       H  0.27473218  0.13361633  0.85300282     0.11400
C1425       C  0.45926140  0.24437598  0.79501424    -0.03200
C1426       C  0.45597036  0.24378987  0.83393253    -0.05800
C1427       C  0.43661026  0.24408782  0.84793102    -0.20900
C1428       C  0.42036074  0.24530968  0.82327145     0.24800
C1429       C  0.42374294  0.24542132  0.78452007    -0.18500
C1430       C  0.44282210  0.24505021  0.77066352    -0.08400
C1431       C  0.39982397  0.24592782  0.83754226    -0.18700
C1432       C  0.38581481  0.25644040  0.81945114    -0.23500
C1433       C  0.36438096  0.25587627  0.82766160     0.26900
C1434       C  0.35244368  0.27079743  0.81248519    -0.20300
C1435       C  0.33194395  0.26985806  0.81531909    -0.09900
C1436       C  0.32281819  0.25388452  0.83334727    -0.10500
C1437       C  0.33475847  0.23914297  0.84944839    -0.03400
C1438       C  0.35535260  0.24007288  0.84653582    -0.18500
H1439       H  0.46827005  0.24307653  0.85342763     0.10600
H1440       H  0.43432289  0.24367080  0.87795749     0.10600
H1441       H  0.41158660  0.24555541  0.76464507     0.10300
H1442       H  0.44456167  0.24526916  0.74049665     0.11400
H1443       H  0.39632881  0.23774027  0.86280225     0.11500
H1444       H  0.39027928  0.26596750  0.79648354     0.13400
H1445       H  0.35899722  0.28306882  0.79759453     0.09900
H1446       H  0.32322811  0.28152501  0.80279344     0.12000
H1447       H  0.32816983  0.22658864  0.86335945     0.08600
H1448       H  0.36401684  0.22805291  0.85779511     0.11400
C1449       C  0.46343695  0.23751747  0.60511928    -0.03200
C1450       C  0.45596854  0.25195947  0.58073170    -0.05800
C1451       C  0.43591871  0.25186436  0.57059208    -0.20900
C1452       C  0.42307064  0.23738342  0.58472925     0.24800
C1453       C  0.43104102  0.22204599  0.60663890    -0.18500
C1454       C  0.45093852  0.22227282  0.61702664    -0.08400
C1455       C  0.40145705  0.23908819  0.57727895    -0.18700
C1456       C  0.38769785  0.23160918  0.60060479    -0.23500
C1457       C  0.36595849  0.23402195  0.59576253     0.26900
C1458       C  0.35340564  0.22184941  0.61679178    -0.20300
C1459       C  0.33291369  0.22393510  0.61449757    -0.09900
C1460       C  0.32439909  0.23833777  0.59113399    -0.10500
C1461       C  0.33691952  0.25057789  0.57009628    -0.03400
C1462       C  0.35745418  0.24851477  0.57244715    -0.18500
H1463       H  0.46526474  0.26402979  0.57169338     0.10600
H1464       H  0.43022785  0.26370815  0.55326303     0.10600
H1465       H  0.42192136  0.21009434  0.61666993     0.10300
H1466       H  0.45642542  0.21095182  0.63582697     0.11400
H1467       H  0.39695663  0.24759202  0.55294444     0.11500
H1468       H  0.39246379  0.22344876  0.62522276     0.13400
H1469       H  0.35948748  0.21066127  0.63520963     0.09900
H1470       H  0.32374579  0.21426366  0.63115318     0.12000
H1471       H  0.33085964  0.26196555  0.55213075     0.08600
H1472       H  0.36647563  0.25860833  0.55655524     0.11400
C1473       C  0.67155072  0.25098998  0.55842467    -0.03200
C1474       C  0.66105419  0.23661784  0.53801535    -0.05800
C1475       C  0.64044962  0.23555653  0.53991808    -0.20900
C1476       C  0.62980472  0.24892651  0.56188916     0.24800
C1477       C  0.64032037  0.26332954  0.58230997    -0.18500
C1478       C  0.66090368  0.26436398  0.58047689    -0.08400
C1479       C  0.60798782  0.24656880  0.56490004    -0.18700
C1480       C  0.59587663  0.26122382  0.57556816    -0.23500
C1481       C  0.57462270  0.25842141  0.58431450     0.26900
C1482       C  0.56608281  0.27119251  0.61043716    -0.20300
C1483       C  0.54678787  0.26822902  0.62253150    -0.09900
C1484       C  0.53535836  0.25273195  0.60803480    -0.10500
C1485       C  0.54334004  0.24058859  0.58019120    -0.03400
C1486       C  0.56291337  0.24331482  0.56853143    -0.18500
H1487       H  0.66876619  0.22602600  0.52084826     0.10600
H1488       H  0.63278909  0.22417670  0.52425893     0.10600
H1489       H  0.63286203  0.27348484  0.60069901     0.10300
H1490       H  0.66849457  0.27552247  0.59680427     0.11400
H1491       H  0.60191710  0.23206909  0.55919829     0.11500
H1492       H  0.60198138  0.27574008  0.58090131     0.13400
H1493       H  0.57466831  0.28302399  0.62281654     0.09900
H1494       H  0.54092842  0.27774734  0.64410909     0.12000
H1495       H  0.53480373  0.22844098  0.56888961     0.08600
H1496       H  0.56883857  0.23349103  0.54760383     0.11400
C1497       C  0.82484855  0.25820737  0.56360227    -0.03200
C1498       C  0.83478141  0.26887663  0.53573792    -0.05800
C1499       C  0.85515286  0.27149521  0.53766880    -0.20900
C1500       C  0.86625127  0.26363404  0.56751235     0.24800
C1501       C  0.85636615  0.25304076  0.59574584    -0.18500
C1502       C  0.83584966  0.25034012  0.59371536    -0.08400
C1503       C  0.88800522  0.26658547  0.56661477    -0.18700
C1504       C  0.90109655  0.26095097  0.59324889    -0.23500
C1505       C  0.92269191  0.26338661  0.58739896     0.26900
C1506       C  0.93589811  0.24913387  0.60126454    -0.20300
C1507       C  0.95570529  0.24923784  0.59002594    -0.09900
C1508       C  0.96241862  0.26360781  0.56478667    -0.10500
C1509       C  0.94969513  0.27885884  0.55389734    -0.03400
C1510       C  0.93013121  0.27894347  0.56553221    -0.18500
H1511       H  0.82682429  0.27519453  0.01218914     0.10600
H1512       H  0.86229379  0.27971148  0.01548193     0.10600
H1513       H  0.86427108  0.24666140  0.61919373     0.10300
H1514       H  0.82859961  0.24215206  0.61577991     0.11400
H1515       H  0.89363219  0.27333439  0.54121136     0.11500
H1516       H  0.89626570  0.25313629  0.61807075     0.13400
H1517       H  0.93060667  0.23720039  0.61871880     0.09900
H1518       H  0.96530687  0.23731463  0.59870524     0.12000
H1519       H  0.95468177  0.29026412  0.03488229     0.08600
H1520       H  0.92066945  0.29077952  0.05597536     0.11400
C1521       C  0.67111880  0.24910690  0.80631511    -0.03200
C1522       C  0.66154034  0.23688990  0.78013463    -0.05800
C1523       C  0.64109899  0.23443419  0.78095255    -0.20900
C1524       C  0.62959625  0.24406407  0.80791872     0.24800
C1525       C  0.63913665  0.25643470  0.83409317    -0.18500
C1526       C  0.65966864  0.25894161  0.83319141    -0.08400
C1527       C  0.60784973  0.24070463  0.80681616    -0.18700
C1528       C  0.59450412  0.24888986  0.83002454    -0.23500
C1529       C  0.57290242  0.24581049  0.82455726     0.26900
C1530       C  0.55968027  0.26099423  0.83361650    -0.20300
C1531       C  0.53972562  0.25967573  0.82309737    -0.09900
C1532       C  0.53279768  0.24307161  0.80367217    -0.10500
C1533       C  0.54560627  0.22725705  0.79745370    -0.03400
C1534       C  0.56538945  0.22846232  0.80824143    -0.18500
H1535       H  0.66984705  0.22909590  0.75900795     0.10600
H1536       H  0.63424105  0.22485835  0.76033894     0.10600
H1537       H  0.63099906  0.26419485  0.85537453     0.10300
H1538       H  0.66659526  0.26843657  0.85383338     0.11400
H1539       H  0.60249467  0.23137371  0.78422282     0.11500
H1540       H  0.59913438  0.25922917  0.85146982     0.13400
H1541       H  0.56503471  0.27439452  0.84666077     0.09900
H1542       H  0.53010431  0.27215040  0.82763840     0.12000
H1543       H  0.54049664  0.21433318  0.78242631     0.08600
H1544       H  0.57488472  0.21606336  0.80243135     0.11400
C1545       C  0.95884295  0.27256627  0.87329266    -0.03200
C1546       C  0.94454034  0.28223465  0.89483346    -0.05800
C1547       C  0.92468514  0.28160708  0.88463885    -0.20900
C1548       C  0.91850937  0.27151990  0.85239266     0.24800
C1549       C  0.93288015  0.26296670  0.82911656    -0.18500
C1550       C  0.95296646  0.26351582  0.83953625    -0.08400
C1551       C  0.89694308  0.26857215  0.84689804    -0.18700
C1552       C  0.88790580  0.26559000  0.81365688    -0.23500
C1553       C  0.86613451  0.26286259  0.81121045     0.26900
C1554       C  0.85543016  0.27127643  0.78142552    -0.20300
C1555       C  0.83481826  0.26955510  0.77977034    -0.09900
C1556       C  0.82454832  0.25897809  0.80749204    -0.10500
C1557       C  0.83539156  0.25006235  0.83665619    -0.03400
C1558       C  0.85590727  0.25202062  0.83856667    -0.18500
H1559       H  0.94859681  0.28945935  0.92085549     0.10600
H1560       H  0.91397644  0.28840168  0.90294762     0.10600
H1561       H  0.92855476  0.25485892  0.80426655     0.10300
H1562       H  0.96363861  0.25574745  0.82264638     0.11400
H1563       H  0.88786625  0.26965527  0.87183695     0.11500
H1564       H  0.89631191  0.26638321  0.78787848     0.13400
H1565       H  0.86298883  0.27958598  0.75988981     0.09900
H1566       H  0.82693099  0.27650928  0.75680808     0.12000
H1567       H  0.82799913  0.24174263  0.85837649     0.08600
H1568       H  0.86378263  0.24494239  0.86140004     0.11400
C1569       C  0.75071977  0.03975857  0.52742021    -0.03200
C1570       C  0.73335053  0.04516164  0.54587378    -0.05800
C1571       C  0.73061028  0.06473351  0.55745706    -0.20900
C1572       C  0.74537525  0.07898333  0.55152852     0.24800
C1573       C  0.76307981  0.07316799  0.53450006    -0.18500
C1574       C  0.76562749  0.05382706  0.52240351    -0.08400
C1575       C  0.74130575  0.10014962  0.55905762    -0.18700
C1576       C  0.75576968  0.11326775  0.56648643    -0.23500
C1577       C  0.75286693  0.13496794  0.56693340     0.26900
C1578       C  0.76629542  0.14670018  0.58707455    -0.20300
C1579       C  0.76527802  0.16725367  0.58528914    -0.09900
C1580       C  0.75095442  0.17660949  0.56277765    -0.10500
C1581       C  0.73745052  0.16485104  0.54263695    -0.03400
C1582       C  0.73835841  0.14425776  0.54473166    -0.18500
H1583       H  0.72153458  0.03457631  0.54938785     0.10600
H1584       H  0.71674586  0.06888723  0.57008423     0.10600
H1585       H  0.77456255  0.08375601  0.52837618     0.10300
H1586       H  0.77903021  0.04998499  0.50776021     0.11400
H1587       H  0.72610357  0.10509385  0.55724351     0.11500
H1588       H  0.77061843  0.10794751  0.57194038     0.13400
H1589       H  0.77776666  0.13992135  0.60399581     0.09900
H1590       H  0.77592437  0.17580912  0.60117714     0.12000
H1591       H  0.72625953  0.17155474  0.52497012     0.08600
H1592       H  0.72813444  0.13569112  0.52793263     0.11400
C1593       C  0.76327588  0.03999508  0.83465944    -0.03200
C1594       C  0.77806730  0.04667758  0.81036145    -0.05800
C1595       C  0.77850953  0.06649410  0.79886231    -0.20900
C1596       C  0.76391770  0.07979400  0.81067258     0.24800
C1597       C  0.74850919  0.07268627  0.83319741    -0.18500
C1598       C  0.74827706  0.05308609  0.84514771    -0.08400
C1599       C  0.76610766  0.10129009  0.80285146    -0.18700
C1600       C  0.75055757  0.11362176  0.80066693    -0.23500
C1601       C  0.75221234  0.13547236  0.79829529     0.26900
C1602       C  0.73662170  0.14610842  0.78200485    -0.20300
C1603       C  0.73655021  0.16670807  0.78253135    -0.09900
C1604       C  0.75190982  0.17725263  0.80011439    -0.10500
C1605       C  0.76767094  0.16662822  0.81616316    -0.03400
C1606       C  0.76788219  0.14595366  0.81511329    -0.18500
H1607       H  0.78996362  0.03696498  0.80234692     0.10600
H1608       H  0.79061650  0.07160511  0.78172456     0.10600
H1609       H  0.73725432  0.08248623  0.84365549     0.10300
H1610       H  0.73678843  0.04834606  0.86412303     0.11400
H1611       H  0.78092095  0.10709361  0.79937213     0.11500
H1612       H  0.73575601  0.10747260  0.80051916     0.13400
H1613       H  0.72428171  0.13842054  0.76920665     0.09900
H1614       H  0.72415620  0.17436649  0.76995517     0.12000
H1615       H  0.77973834  0.17428443  0.82990626     0.08600
H1616       H  0.77991366  0.13823250  0.82874080     0.11400
C1617       C  0.74555207  0.33074019  0.81502965    -0.03200
C1618       C  0.72889761  0.34057444  0.82883754    -0.05800
C1619       C  0.72831237  0.36118544  0.82980295    -0.20900
C1620       C  0.74451921  0.37243729  0.81793865     0.24800
C1621       C  0.76139080  0.36260627  0.80494487    -0.18500
C1622       C  0.76183741  0.34199092  0.80330815    -0.08400
C1623       C  0.74253880  0.39423760  0.81562852    -0.18700
C1624       C  0.75789769  0.40689246  0.81729914    -0.23500
C1625       C  0.75590404  0.42824264  0.80820561     0.26900
C1626       C  0.76944415  0.44198261  0.82302845    -0.20300
C1627       C  0.76934813  0.46168254  0.81075977    -0.09900
C1628       C  0.75598486  0.46777414  0.78281037    -0.10500
C1629       C  0.74203697  0.45420492  0.76909007    -0.03400
C1630       C  0.74192991  0.43474052  0.78164742    -0.18500
H1631       H  0.71608988  0.33234484  0.83792268     0.10600
H1632       H  0.71504519  0.36839033  0.83946778     0.10600
H1633       H  0.77395513  0.37078639  0.79464837     0.10300
H1634       H  0.77490545  0.33484472  0.79260346     0.11400
H1635       H  0.72772775  0.40003525  0.81197133     0.11500
H1636       H  0.77247729  0.40143189  0.82459654     0.13400
H1637       H  0.78049628  0.43731160  0.84323628     0.09900
H1638       H  0.78047248  0.47176552  0.82128366     0.12000
H1639       H  0.73169683  0.45847054  0.74723580     0.08600
H1640       H  0.73162529  0.42457553  0.76873218     0.11400
C1641       C  0.74839361  0.32962703  0.54603802    -0.03200
C1642       C  0.76475484  0.33885026  0.52946163    -0.05800
C1643       C  0.76648624  0.35934778  0.52933564    -0.20900
C1644       C  0.75173272  0.37114177  0.54496257     0.24800
C1645       C  0.73495032  0.36201719  0.56026690    -0.18500
C1646       C  0.73335866  0.34143382  0.56096825    -0.08400
C1647       C  0.75548530  0.39257006  0.54903761    -0.18700
C1648       C  0.74117319  0.40623467  0.55108909    -0.23500
C1649       C  0.74545604  0.42692482  0.56198965     0.26900
C1650       C  0.73356793  0.44235839  0.54843572    -0.20300
C1651       C  0.73631803  0.46166951  0.56154490    -0.09900
C1652       C  0.75059913  0.46562469  0.58924423    -0.10500
C1653       C  0.76269571  0.45026023  0.60218936    -0.03400
C1654       C  0.76025219  0.43117049  0.58860727    -0.18500
H1655       H  0.77662792  0.33020654  0.51778717     0.10600
H1656       H  0.77963047  0.36601737  0.51771965     0.10600
H1657       H  0.72351414  0.37067598  0.57332435     0.10300
H1658       H  0.72056497  0.33475970  0.57386450     0.11400
H1659       H  0.77080072  0.39722679  0.55108314     0.11500
H1660       H  0.72594484  0.40213856  0.54546652     0.13400
H1661       H  0.72194581  0.43939199  0.52820204     0.09900
H1662       H  0.72669176  0.47327099  0.55147305     0.12000
H1663       H  0.77378653  0.45294590  0.62362914     0.08600
H1664       H  0.76934118  0.41959157  0.60041135     0.11400
C1665       C  0.75167720  0.67663221  0.57189076    -0.03200
C1666       C  0.76192331  0.66693940  0.60085590    -0.05800
C1667       C  0.76164098  0.64648657  0.60352822    -0.20900
C1668       C  0.75126901  0.63502813  0.57723678     0.24800
C1669       C  0.74082584  0.64462264  0.54821096    -0.18500
C1670       C  0.74100424  0.66527091  0.54565969    -0.08400
C1671       C  0.75221313  0.61327772  0.58183754    -0.18700
C1672       C  0.74582530  0.59968939  0.55695551    -0.23500
C1673       C  0.74902227  0.57833731  0.56420650     0.26900
C1674       C  0.73468707  0.56438370  0.55357880    -0.20300
C1675       C  0.73656881  0.54461544  0.56476459    -0.09900
C1676       C  0.75283250  0.53870263  0.58660223    -0.10500
C1677       C  0.76781125  0.55232523  0.59466321    -0.03400
C1678       C  0.76608109  0.57184662  0.58317429    -0.18500
H1679       H  0.77021092  0.67515976  0.62169964     0.10600
H1680       H  0.76978925  0.63956582  0.62623302     0.10600
H1681       H  0.73247645  0.63638909  0.52757675     0.10300
H1682       H  0.73289922  0.67231956  0.52307518     0.11400
H1683       H  0.75910292  0.60810175  0.60763332     0.11500
H1684       H  0.73785889  0.60398549  0.53178475     0.13400
H1685       H  0.72157196  0.56897536  0.53842293     0.09900
H1686       H  0.72479512  0.53430540  0.55848991     0.12000
H1687       H  0.78057257  0.54798863  0.61117692     0.08600
H1688       H  0.77788036  0.58197917  0.59022619     0.11400
C1689       C  0.75675036  0.82929552  0.56533364    -0.03200
C1690       C  0.76761758  0.83789729  0.53620863    -0.05800
C1691       C  0.76787022  0.85821780  0.53121473    -0.20900
C1692       C  0.75748122  0.87069813  0.55532527     0.24800
C1693       C  0.74682679  0.86228749  0.58515216    -0.18500
C1694       C  0.74639998  0.84170323  0.58997881    -0.08400
C1695       C  0.75786564  0.89211479  0.54643428    -0.18700
C1696       C  0.75285999  0.90699650  0.56953915    -0.23500
C1697       C  0.75489043  0.92796922  0.55737170     0.26900
C1698       C  0.74200933  0.94247764  0.57103158    -0.20300
C1699       C  0.74268171  0.96182126  0.55685341    -0.09900
C1700       C  0.75620575  0.96682958  0.52869958    -0.10500
C1701       C  0.76983113  0.95264733  0.51690027    -0.03400
C1702       C  0.76940036  0.93359989  0.53140792    -0.18500
H1703       H  0.77570525  0.82888645  0.51657414     0.10600
H1704       H  0.77619908  0.86422437  0.00801095     0.10600
H1705       H  0.73846474  0.87140497  0.60410744     0.10300
H1706       H  0.73787893  0.83550910  0.61271531     0.11400
H1707       H  0.76291915  0.89577633  0.51845610     0.11500
H1708       H  0.74686556  0.90392675  0.59706515     0.13400
H1709       H  0.73094759  0.93865876  0.59157636     0.09900
H1710       H  0.73208483  0.97255143  0.56654857     0.12000
H1711       H  0.78075235  0.95624275  0.99591590     0.08600
H1712       H  0.78037435  0.92326862  0.52175504     0.11400
C1713       C  0.76861369  0.54036156  0.77806978    -0.03200
C1714       C  0.78236079  0.55289292  0.76094372    -0.05800
C1715       C  0.78405149  0.57255900  0.77174328    -0.20900
C1716       C  0.77172745  0.58041835  0.79934868     0.24800
C1717       C  0.75848822  0.56768878  0.81786886    -0.18500
C1718       C  0.75705011  0.54773649  0.80741766    -0.08400
C1719       C  0.77302362  0.60201960  0.80654632    -0.18700
C1720       C  0.75804380  0.61314947  0.81935173    -0.23500
C1721       C  0.75867905  0.63517003  0.82011750     0.26900
C1722       C  0.74590134  0.64541665  0.84399948    -0.20300
C1723       C  0.74535286  0.66607086  0.84395416    -0.09900
C1724       C  0.75746920  0.67701523  0.81968929    -0.10500
C1725       C  0.77022445  0.66676026  0.79572583    -0.03400
C1726       C  0.77077857  0.64615154  0.79578765    -0.18500
H1727       H  0.79140208  0.54759009  0.73815637     0.10600
H1728       H  0.79447102  0.58191232  0.75719121     0.10600
H1729       H  0.74907382  0.57310699  0.83992255     0.10300
H1730       H  0.74620372  0.53839417  0.82078787     0.11400
H1731       H  0.78657899  0.60921497  0.79806016     0.11500
H1732       H  0.74453530  0.60606817  0.82845974     0.13400
H1733       H  0.73625178  0.63739994  0.86271752     0.09900
H1734       H  0.73533368  0.67345396  0.86278857     0.12000
H1735       H  0.77965888  0.67465962  0.77645410     0.08600
H1736       H  0.78031046  0.63897537  0.77586406     0.11400
C1737       C  0.77745855  0.96782709  0.83953948    -0.03200
C1738       C  0.79165676  0.95586588  0.85709587    -0.05800
C1739       C  0.79349887  0.93603169  0.84740913    -0.20900
C1740       C  0.78081296  0.92750243  0.82071225     0.24800
C1741       C  0.76737192  0.93976153  0.80135101    -0.18500
C1742       C  0.76580220  0.95982662  0.81060221    -0.08400
C1743       C  0.78154520  0.90569953  0.81572410    -0.18700
C1744       C  0.76574305  0.89464342  0.80602909    -0.23500
C1745       C  0.76541089  0.87262354  0.80739155     0.26900
C1746       C  0.75061156  0.86250290  0.78742950    -0.20300
C1747       C  0.74890437  0.84196750  0.78983393    -0.09900
C1748       C  0.76182642  0.83098342  0.81273168    -0.10500
C1749       C  0.77668728  0.84107824  0.83268618    -0.03400
C1750       C  0.77846432  0.86161330  0.83011964    -0.18500
H1751       H  0.80072555  0.96167942  0.87966996     0.10600
H1752       H  0.80411335  0.92704108  0.86248216     0.10600
H1753       H  0.75774046  0.93382975  0.77982061     0.10300
H1754       H  0.75460956  0.96872705  0.79695278     0.11400
H1755       H  0.79521239  0.89846760  0.82361840     0.11500
H1756       H  0.75209729  0.90192746  0.79807940     0.13400
H1757       H  0.74021948  0.87054658  0.77002173     0.09900
H1758       H  0.73727608  0.83472310  0.77405327     0.12000
H1759       H  0.78689165  0.83311968  0.85061131     0.08600
H1760       H  0.78971011  0.86874405  0.84694497     0.11400
C1761       C  0.68013211  0.75827046  0.82537331    -0.03200
C1762       C  0.67084084  0.77570374  0.81362384    -0.05800
C1763       C  0.65034563  0.77746252  0.81474590    -0.20900
C1764       C  0.63851862  0.76184608  0.82740242     0.24800
C1765       C  0.64780348  0.74443054  0.83980202    -0.18500
C1766       C  0.66842279  0.74274425  0.83902242    -0.08400
C1767       C  0.61672175  0.76395689  0.82362284    -0.18700
C1768       C  0.60318759  0.75120533  0.83701148    -0.23500
C1769       C  0.58200357  0.75216596  0.82560468     0.26900
C1770       C  0.56739718  0.74357331  0.84827237    -0.20300
C1771       C  0.54773033  0.74232073  0.83566881    -0.09900
C1772       C  0.54251241  0.74933077  0.79986895    -0.10500
C1773       C  0.55698241  0.75855736  0.77795728    -0.03400
C1774       C  0.57642442  0.75989031  0.79048293    -0.18500
H1775       H  0.67941961  0.78801677  0.80330465     0.10600
H1776       H  0.64366572  0.79101555  0.80486927     0.10600
H1777       H  0.63932009  0.73187410  0.84909043     0.10300
H1778       H  0.67516533  0.72909500  0.84818127     0.11400
H1779       H  0.61160138  0.77663052  0.80773495     0.11500
H1780       H  0.60761948  0.73939831  0.85574878     0.13400
H1781       H  0.57132462  0.73733611  0.87528858     0.09900
H1782       H  0.53690790  0.73494847  0.85294305     0.12000
H1783       H  0.55343145  0.76408827  0.75019449     0.08600
H1784       H  0.58717525  0.76603074  0.77148114     0.11400
C1785       C  0.54241610  0.73422809  0.61184982    -0.03200
C1786       C  0.55676135  0.72235597  0.62923690    -0.05800
C1787       C  0.57670001  0.72472686  0.62126071    -0.20900
C1788       C  0.58296352  0.73892162  0.59538235     0.24800
C1789       C  0.56857575  0.75000277  0.57584080    -0.18500
C1790       C  0.54837421  0.74765956  0.58407990    -0.08400
C1791       C  0.60458208  0.74269437  0.59293887    -0.18700
C1792       C  0.61389088  0.75075999  0.56341004    -0.23500
C1793       C  0.63577371  0.75306112  0.56334740     0.26900
C1794       C  0.64640406  0.74907147  0.53059189    -0.20300
C1795       C  0.66709717  0.74962506  0.53088570    -0.09900
C1796       C  0.67755453  0.75476493  0.56370077    -0.10500
C1797       C  0.66685216  0.75968127  0.59596823    -0.03400
C1798       C  0.64621676  0.75870412  0.59589298    -0.18500
H1799       H  0.55260475  0.71193728  0.65086249     0.10600
H1800       H  0.58737038  0.71593365  0.63660938     0.10600
H1801       H  0.57291523  0.76125536  0.55600497     0.10300
H1802       H  0.53765107  0.75725815  0.57083000     0.11400
H1803       H  0.61351763  0.73765589  0.61649614     0.11500
H1804       H  0.60567652  0.75420415  0.53799814     0.13400
H1805       H  0.63870642  0.74487262  0.50509216     0.09900
H1806       H  0.67493016  0.74596991  0.50546257     0.12000
H1807       H  0.67446281  0.76377464  0.62162150     0.08600
H1808       H  0.63842863  0.76232500  0.62137712     0.11400
C1809       C  0.32989939  0.74069250  0.57771296    -0.03200
C1810       C  0.33797668  0.72300098  0.56421019    -0.05800
C1811       C  0.35833812  0.71971222  0.56550076    -0.20900
C1812       C  0.37124184  0.73415860  0.57946873     0.24800
C1813       C  0.36329241  0.75202120  0.59244473    -0.18500
C1814       C  0.34281956  0.75519646  0.59178292    -0.08400
C1815       C  0.39262043  0.72941794  0.58310273    -0.18700
C1816       C  0.40716369  0.74294347  0.58073496    -0.23500
C1817       C  0.42832702  0.73819989  0.58818080     0.26900
C1818       C  0.44327715  0.74962653  0.57160849    -0.20300
C1819       C  0.46315897  0.74707714  0.58202143    -0.09900
C1820       C  0.46832093  0.73335486  0.60985326    -0.10500
C1821       C  0.45347901  0.72138643  0.62521908    -0.03400
C1822       C  0.43375815  0.72368820  0.61444787    -0.18500
H1823       H  0.32850867  0.71144101  0.55335653     0.10600
H1824       H  0.36403934  0.70575327  0.55571325     0.10600
H1825       H  0.37279778  0.76327675  0.60425768     0.10300
H1826       H  0.33710027  0.76894667  0.60249278     0.11400
H1827       H  0.39648320  0.71403773  0.58709962     0.11500
H1828       H  0.40349905  0.75799660  0.57310118     0.13400
H1829       H  0.43948236  0.76099887  0.55149526     0.09900
H1830       H  0.47425691  0.75674536  0.57032407     0.12000
H1831       H  0.45704585  0.71087669  0.64713380     0.08600
H1832       H  0.42270956  0.71491105  0.62852491     0.11400
C1833       C  0.25172557  0.82388290  0.57511433    -0.03200
C1834       C  0.23808316  0.83337381  0.55131641    -0.05800
C1835       C  0.23602195  0.85385722  0.55195046    -0.20900
C1836       C  0.24763715  0.86545478  0.57606182     0.24800
C1837       C  0.26137785  0.85603991  0.59984709    -0.18500
C1838       C  0.26341092  0.83548089  0.59930520    -0.08400
C1839       C  0.24470851  0.88720861  0.57582951    -0.18700
C1840       C  0.25896579  0.90023267  0.58496610    -0.23500
C1841       C  0.25664663  0.92180445  0.57911654     0.26900
C1842       C  0.27286758  0.93264269  0.56621540    -0.20300
C1843       C  0.27080292  0.95248243  0.55649803    -0.09900
C1844       C  0.25264918  0.96209814  0.56074276    -0.10500
C1845       C  0.23666387  0.95165884  0.57579797    -0.03400
C1846       C  0.23859531  0.93159616  0.58472760    -0.18500
H1847       H  0.22882644  0.82495717  0.53231625     0.10600
H1848       H  0.22532525  0.86069266  0.53335252     0.10600
H1849       H  0.27027450  0.86442831  0.61945097     0.10300
H1850       H  0.27391192  0.82865251  0.61828477     0.11400
H1851       H  0.23084131  0.89271182  0.56452148     0.11500
H1852       H  0.27353696  0.89490160  0.59263441     0.13400
H1853       H  0.28691811  0.92547084  0.56174747     0.09900
H1854       H  0.28320659  0.96017006  0.54423322     0.12000
H1855       H  0.22241693  0.95868959  0.57850336     0.08600
H1856       H  0.22590998  0.92368204  0.59525923     0.11400
C1857       C  0.33215729  0.73970449  0.83122461    -0.03200
C1858       C  0.34024071  0.72595378  0.80630045    -0.05800
C1859       C  0.36059183  0.72332486  0.80423929    -0.20900
C1860       C  0.37352204  0.73430291  0.82698588     0.24800
C1861       C  0.36548877  0.74777237  0.85273326    -0.18500
C1862       C  0.34498939  0.75040464  0.85482592    -0.08400
C1863       C  0.39507759  0.73180659  0.82071599    -0.18700
C1864       C  0.40969879  0.73948704  0.84210879    -0.23500
C1865       C  0.43089156  0.73760092  0.83169533     0.26900
C1866       C  0.44446606  0.75210652  0.84331328    -0.20300
C1867       C  0.46394379  0.75193130  0.83020415    -0.09900
C1868       C  0.47004420  0.73727006  0.80516473    -0.10500
C1869       C  0.45688944  0.72211754  0.79549697    -0.03400
C1870       C  0.43765292  0.72207179  0.80905870    -0.18500
H1871       H  0.33084866  0.71733118  0.78788110     0.10600
H1872       H  0.36627675  0.71281551  0.78420672     0.10600
H1873       H  0.37483051  0.75668345  0.87060653     0.10300
H1874       H  0.33922166  0.76108429  0.87441128     0.11400
H1875       H  0.39897032  0.72363505  0.79574290     0.11500
H1876       H  0.40622840  0.74835992  0.86640870     0.13400
H1877       H  0.43975105  0.76407927  0.86115222     0.09900
H1878       H  0.47384119  0.76383567  0.83782991     0.12000
H1879       H  0.46138655  0.71051630  0.77657246     0.08600
H1880       H  0.42808883  0.71000794  0.80103222     0.11400
C1881       C  0.26501064  0.96430707  0.87034348    -0.03200
C1882       C  0.25477726  0.95818097  0.83804977    -0.05800
C1883       C  0.25590912  0.93849143  0.82617382    -0.20900
C1884       C  0.26731557  0.92466894  0.84627717     0.24800
C1885       C  0.27874692  0.93138158  0.87684778    -0.18500
C1886       C  0.27738445  0.95086131  0.88892787    -0.08400
C1887       C  0.26650929  0.90341563  0.83535402    -0.18700
C1888       C  0.27164275  0.88861655  0.85887553    -0.23500
C1889       C  0.27010818  0.86722421  0.84996617     0.26900
C1890       C  0.28119195  0.85394374  0.87173892    -0.20300
C1891       C  0.27934191  0.83362125  0.86657069    -0.09900
C1892       C  0.26617726  0.82597002  0.83962858    -0.10500
C1893       C  0.25521184  0.83924577  0.81742252    -0.03400
C1894       C  0.25712764  0.85965332  0.82252259    -0.18500
H1895       H  0.24500043  0.96824515  0.82344376     0.10600
H1896       H  0.24717997  0.93385471  0.80218292     0.10600
H1897       H  0.28855383  0.92169156  0.89212327     0.10300
H1898       H  0.28558856  0.95531186  0.91371814     0.11400
H1899       H  0.26081090  0.89994901  0.80762149     0.11500
H1900       H  0.27713537  0.89207376  0.88671577     0.13400
H1901       H  0.29123033  0.85932237  0.89320409     0.09900
H1902       H  0.28803888  0.82389447  0.88418040     0.12000
H1903       H  0.24485349  0.83386684  0.79654229     0.08600
H1904       H  0.24795881  0.86932391  0.80577344     0.11400
C1905       C  0.04113770  0.73705010  0.52346333    -0.03200
C1906       C  0.05468679  0.72572657  0.50321442    -0.05800
C1907       C  0.07445690  0.72503530  0.51381491    -0.20900
C1908       C  0.08131760  0.73560961  0.54500056     0.24800
C1909       C  0.06756078  0.74594453  0.56705191    -0.18500
C1910       C  0.04751459  0.74661332  0.55630961    -0.08400
C1911       C  0.10307089  0.73715449  0.55008311    -0.18700
C1912       C  0.11252663  0.74259172  0.58174400    -0.23500
C1913       C  0.13441063  0.74457037  0.58259089     0.26900
C1914       C  0.14523264  0.73832517  0.61410994    -0.20300
C1915       C  0.16591570  0.73922234  0.61426081    -0.09900
C1916       C  0.17615609  0.74682358  0.58316972    -0.10500
C1917       C  0.16521567  0.75374177  0.55223277    -0.03400
C1918       C  0.14462224  0.75257545  0.55188573    -0.18500
H1919       H  0.05013572  0.71816996  0.97782193     0.10600
H1920       H  0.08463653  0.71689607  0.99640909     0.10600
H1921       H  0.07237830  0.75445319  0.59106137     0.10300
H1922       H  0.03736533  0.75564294  0.57206806     0.11400
H1923       H  0.11195867  0.73335177  0.52587659     0.11500
H1924       H  0.10438009  0.74472650  0.60752101     0.13400
H1925       H  0.13769930  0.73227806  0.63823221     0.09900
H1926       H  0.17389078  0.73392668  0.63868459     0.12000
H1927       H  0.17258443  0.75978960  0.52793583     0.08600
H1928       H  0.13667182  0.75801486  0.52755133     0.11400
C1929       C  0.96738851  0.73678993  0.52047550    -0.03200
C1930       C  0.95382659  0.72548737  0.49972179    -0.05800
C1931       C  0.93391129  0.72517030  0.50908004    -0.20900
C1932       C  0.92690624  0.73615545  0.53945087     0.24800
C1933       C  0.94064168  0.74651895  0.56195261    -0.18500
C1934       C  0.96080847  0.74677846  0.55252741    -0.08400
C1935       C  0.90509984  0.73805528  0.54323998    -0.18700
C1936       C  0.89550057  0.74374899  0.57434931    -0.23500
C1937       C  0.87361456  0.74608693  0.57428193     0.26900
C1938       C  0.86261588  0.74049509  0.60578519    -0.20300
C1939       C  0.84195301  0.74195073  0.60539679    -0.09900
C1940       C  0.83190643  0.74955766  0.57384552    -0.10500
C1941       C  0.84301703  0.75579291  0.54287784    -0.03400
C1942       C  0.86358423  0.75397826  0.54299581    -0.18500
H1943       H  0.95850607  0.71763600  0.97488017     0.10600
H1944       H  0.92376346  0.71699849  0.99134485     0.10600
H1945       H  0.93574721  0.75536161  0.58531741     0.10300
H1946       H  0.97093916  0.75583291  0.56862006     0.11400
H1947       H  0.89633256  0.73428026  0.51862240     0.11500
H1948       H  0.90354657  0.74587056  0.60046388     0.13400
H1949       H  0.86998645  0.73456967  0.63037129     0.09900
H1950       H  0.83383475  0.73718252  0.62984909     0.12000
H1951       H  0.83577465  0.76177501  0.01821054     0.08600
H1952       H  0.87165779  0.75891438  0.51861779     0.11400
C1953       C  0.18019525  0.75948950  0.82099605    -0.03200
C1954       C  0.17240525  0.77670478  0.80467081    -0.05800
C1955       C  0.15200502  0.77952495  0.80212786    -0.20900
C1956       C  0.13893903  0.76503728  0.81502234     0.24800
C1957       C  0.14666291  0.74776648  0.83124481    -0.18500
C1958       C  0.16707839  0.74507093  0.83435640    -0.08400
C1959       C  0.11740848  0.76895473  0.81406142    -0.18700
C1960       C  0.10385630  0.75460325  0.80970228    -0.23500
C1961       C  0.08235097  0.75780664  0.81469414     0.26900
C1962       C  0.06887273  0.74465945  0.79800586    -0.20300
C1963       C  0.04884548  0.74517315  0.80741845    -0.09900
C1964       C  0.04212668  0.75854420  0.83438473    -0.10500
C1965       C  0.05535722  0.77235513  0.84959440    -0.03400
C1966       C  0.07524476  0.77211966  0.83966695    -0.18500
H1967       H  0.18208371  0.78815694  0.79429765     0.10600
H1968       H  0.14639804  0.79306118  0.79000787     0.10600
H1969       H  0.13696099  0.73657312  0.84248504     0.10300
H1970       H  0.17258456  0.73168707  0.84721146     0.11400
H1971       H  0.11265981  0.78414072  0.81691129     0.11500
H1972       H  0.10870670  0.73976383  0.80316803     0.13400
H1973       H  0.07400611  0.73340891  0.77892105     0.09900
H1974       H  0.03895198  0.73416033  0.79587261     0.12000
H1975       H  0.05049230  0.78264257  0.87079889     0.08600
H1976       H  0.08519120  0.78221495  0.85373964     0.11400
C1977       C  0.83307152  0.75363369  0.81758361    -0.03200
C1978       C  0.84354239  0.76186262  0.84791057    -0.05800
C1979       C  0.86409018  0.76098752  0.84927772    -0.20900
C1980       C  0.87468683  0.75223290  0.82009297     0.24800
C1981       C  0.86434131  0.74441692  0.78919785    -0.18500
C1982       C  0.84368938  0.74503796  0.78805388    -0.08400
C1983       C  0.89627315  0.74995799  0.82475951    -0.18700
C1984       C  0.90920337  0.74867947  0.79635203    -0.23500
C1985       C  0.93048699  0.74596844  0.80454911     0.26900
C1986       C  0.94478933  0.75734532  0.78607940    -0.20300
C1987       C  0.96448719  0.75716930  0.79863125    -0.09900
C1988       C  0.96994343  0.74550182  0.82957323    -0.10500
C1989       C  0.95594260  0.73275986  0.84541978    -0.03400
C1990       C  0.93645633  0.73295481  0.83301733    -0.18500
H1991       H  0.83584331  0.76856277  0.87113329     0.10600
H1992       H  0.87174869  0.76697510  0.87350304     0.10600
H1993       H  0.87209550  0.73719741  0.76664209     0.10300
H1994       H  0.83603447  0.73859293  0.76428133     0.11400
H1995       H  0.90190292  0.74985302  0.85340927     0.11500
H1996       H  0.90438570  0.75080750  0.76752410     0.13400
H1997       H  0.94048900  0.76728528  0.76369850     0.09900
H1998       H  0.97504210  0.76710944  0.78598538     0.12000
H1999       H  0.95985480  0.72333470  0.86886294     0.08600
H2000       H  0.92583475  0.72353112  0.84685056     0.11400
C2001       C  0.24322131  0.32625053  0.83544433    -0.03200
C2002       C  0.25119800  0.33623093  0.80449531    -0.05800
C2003       C  0.24923743  0.35657241  0.80096574    -0.20900
C2004       C  0.23952783  0.36757877  0.82845222     0.24800
C2005       C  0.23192713  0.35779062  0.86004029    -0.18500
C2006       C  0.23370477  0.33726145  0.86341404    -0.08400
C2007       C  0.23638187  0.38885745  0.82109427    -0.18700
C2008       C  0.23307802  0.40268850  0.84739836    -0.23500
C2009       C  0.23034003  0.42363023  0.83628341     0.26900
C2010       C  0.23902517  0.43888748  0.85735229    -0.20300
C2011       C  0.23899065  0.45831379  0.84361963    -0.09900
C2012       C  0.23018732  0.46261587  0.80874314    -0.10500
C2013       C  0.22008794  0.44760079  0.78948481    -0.03400
C2014       C  0.22004405  0.42839058  0.80317413    -0.18500
H2015       H  0.25856274  0.32826871  0.78234757     0.10600
H2016       H  0.25513087  0.36373090  0.77626594     0.10600
H2017       H  0.22403094  0.36580223  0.88140255     0.10300
H2018       H  0.22737509  0.32998968  0.88756490     0.11400
H2019       H  0.23762350  0.39352252  0.79201736     0.11500
H2020       H  0.23376477  0.39893827  0.87698780     0.13400
H2021       H  0.24681166  0.43559066  0.88323936     0.09900
H2022       H  0.24689417  0.46963330  0.85897466     0.12000
H2023       H  0.21287076  0.45056957  0.76285773     0.08600
H2024       H  0.21252354  0.41710044  0.78706228     0.11400
C2025       C  0.24889907  0.67352844  0.82382394    -0.03200
C2026       C  0.25877846  0.66368387  0.79486895    -0.05800
C2027       C  0.25764402  0.64327238  0.79151924    -0.20900
C2028       C  0.24683636  0.63199351  0.81719944     0.24800
C2029       C  0.23694112  0.64170740  0.84643030    -0.18500
C2030       C  0.23792264  0.66232519  0.84959736    -0.08400
C2031       C  0.24614137  0.61032931  0.81115351    -0.18700
C2032       C  0.24120385  0.59665571  0.83699578    -0.23500
C2033       C  0.24231401  0.57519198  0.82841472     0.26900
C2034       C  0.22918419  0.56180571  0.84525675    -0.20300
C2035       C  0.22889053  0.54190383  0.83429856    -0.09900
C2036       C  0.24177299  0.53523321  0.80640176    -0.10500
C2037       C  0.25580227  0.54831583  0.79176488    -0.03400
C2038       C  0.25623155  0.56794668  0.80287434    -0.18500
H2039       H  0.26731070  0.67177283  0.77439726     0.10600
H2040       H  0.26536878  0.63623454  0.76866325     0.10600
H2041       H  0.22819014  0.63356991  0.86641432     0.10300
H2042       H  0.23012210  0.66948134  0.87218982     0.11400
H2043       H  0.25048677  0.60538674  0.78346999     0.11500
H2044       H  0.23604403  0.60107698  0.86444052     0.13400
H2045       H  0.21858050  0.56693170  0.86559145     0.09900
H2046       H  0.21792727  0.53207350  0.84596675     0.12000
H2047       H  0.26616525  0.54344854  0.77073389     0.08600
H2048       H  0.26732716  0.57747046  0.79081898     0.11400
C2049       C  0.24629117  0.53252207  0.61335731    -0.03200
C2050       C  0.26117693  0.53788790  0.58809030     0.01400
C2051       C  0.26263168  0.55746555  0.57536098    -0.20900
C2052       C  0.24923923  0.57184160  0.58775078     0.24800
C2053       C  0.23344562  0.56587795  0.61051072    -0.18500
C2054       C  0.23217589  0.54657071  0.62351476    -0.08400
C2055       C  0.25209792  0.59302049  0.57776985    -0.18700
C2056       C  0.24641615  0.60751088  0.60127055    -0.23500
C2057       C  0.24776288  0.62912468  0.59430162     0.26900
C2058       C  0.23831423  0.64159598  0.61987989    -0.20300
C2059       C  0.23907464  0.66200612  0.61582444    -0.09900
C2060       C  0.24945678  0.67066110  0.58609991    -0.10500
C2061       C  0.25892077  0.65825885  0.56020213    -0.03400
C2062       C  0.25806983  0.63766932  0.56418325    -0.18500
H2063       H  0.27228018  0.52729803  0.57998714     0.10600
H2064       H  0.27472661  0.56157635  0.55726452     0.10600
H2065       H  0.22218932  0.57618671  0.61903950     0.10300
H2066       H  0.22038048  0.54271036  0.64252688     0.11400
H2067       H  0.25938752  0.59649542  0.55161915     0.11500
H2068       H  0.24016563  0.60331938  0.62807558     0.13400
H2069       H  0.23025151  0.63551459  0.64334985     0.09900
H2070       H  0.23163116  0.67101531  0.63636449     0.12000
H2071       H  0.26708541  0.66445947  0.53700185     0.08600
H2072       H  0.26569218  0.62866026  0.54398027     0.11400
C2073       C  0.25269640  0.45944633  0.61909059    -0.03200
C2074       C  0.24379019  0.45460312  0.58464189    -0.05800
C2075       C  0.24365484  0.43500732  0.57213295    -0.20900
C2076       C  0.25290010  0.42012470  0.59331613     0.24800
C2077       C  0.26260155  0.42523864  0.62688110    -0.18500
C2078       C  0.26238629  0.44464056  0.63968135    -0.08400
C2079       C  0.25049805  0.39914869  0.58237966    -0.18700
C2080       C  0.26422239  0.38538353  0.59011414    -0.23500
C2081       C  0.26069866  0.36399263  0.58483352     0.26900
C2082       C  0.27647001  0.35171947  0.57508378    -0.20300
C2083       C  0.27389853  0.33128230  0.57304727    -0.09900
C2084       C  0.25562679  0.32267547  0.58188607    -0.10500
C2085       C  0.23983030  0.33499582  0.59161178    -0.03400
C2086       C  0.24228773  0.35545406  0.59279200    -0.18500
H2087       H  0.23598518  0.46570475  0.56855110     0.10600
H2088       H  0.23591215  0.43136724  0.54636869     0.10600
H2089       H  0.26943932  0.41409959  0.64438436     0.10300
H2090       H  0.26926243  0.44797357  0.66646772     0.11400
H2091       H  0.23690458  0.39487500  0.56822675     0.11500
H2092       H  0.27856799  0.38988739  0.60088152     0.13400
H2093       H  0.29084819  0.35796465  0.56929938     0.09900
H2094       H  0.28637878  0.32217154  0.56569346     0.12000
H2095       H  0.22558907  0.32879839  0.59860020     0.08600
H2096       H  0.22998633  0.36451040  0.60132138     0.11400
loop_ 
_geom_bond_atom_site_label_1 
_geom_bond_atom_site_label_2 
_geom_bond_distance 
_geom_bond_site_symmetry_2 
_ccdc_geom_bond_type 
C1            N2   1.358       .  A
C1            N6   1.367       .  A
C1         C1025   1.478       .  S
N2            C3   1.352       .  A
C3            N4   1.352       .  A
C3            C9   1.464       .  S
N4            C5   1.357       .  A
C5            N6   1.366       .  A
C5         C1001   1.477       .  S
C7            N8   1.357       .  A
C7           N12   1.366       .  A
C7          C988   1.477       .  S
N8            C9   1.350       .  A
C9           N10   1.351       .  A
N10          C11   1.359       .  A
C11          N12   1.367       .  A
C11         C964   1.479       .  S
C13          N14   1.366       .  A
C13          N18   1.359       .  A
C13         C916   1.473       .  S
N14          C15   1.364   1_455  A
C15          N16   1.356       .  A
C15         C940   1.475       .  S
N16          C17   1.349   1_655  A
C17          N18   1.353       .  A
C17          C21   1.464       .  S
C19          N24   1.369   1_655  A
C19        N1068   1.358   1_554  A
C19         C881   1.481       .  S
N20          C21   1.351   1_655  A
N20        C1067   1.358       .  A
C21          N22   1.349       .  A
N22        C1071   1.358       .  A
C23          N24   1.369       .  A
C23        N1070   1.358   1_554  A
C23         C857   1.478       .  S
Zn25         O29   1.971       .  S
Zn25         O30   2.022       .  S
Zn25         O34   2.044       .  S
Zn25         O41   2.033       .  S
Zn26         O29   1.979       .  S
Zn26         O31   2.046       .  S
Zn26         O33   2.031       .  S
Zn26         O37   2.033       .  S
Zn27         O29   1.951       .  S
Zn27         O32   2.019       .  S
Zn27         O35   2.002       .  S
Zn27         O38   2.008       .  S
Zn28         O29   1.969       .  S
Zn28         O36   2.035       .  S
Zn28         O39   2.029       .  S
Zn28         O40   2.028       .  S
O30          C42   1.275       .  A
O31          C43   1.276       .  A
O32          C44   1.272       .  A
O33          C42   1.276       .  A
O34          C44   1.275       .  A
O35          C43   1.273       .  A
O36          C45   1.275       .  A
O37          C46   1.274       .  A
O38          C45   1.274       .  A
O39          C46   1.274       .  A
O40          C47   1.276       .  A
O41          C47   1.276       .  A
C42         C905   1.484       .  S
C43         C977   1.486       .  S
C44          C69   1.469       .  S
C45         C809   1.485       .  S
C46          C67   1.467       .  S
C47         C844   1.489       .  S
Zn48         O52   1.964       .  S
Zn48         O53   2.031       .  S
Zn48         O64   2.020       .  S
Zn48       O1105   2.031   1_554  S
Zn49         O52   1.962       .  S
Zn49         O54   2.020       .  S
Zn49         O56   2.029       .  S
Zn49         O60   2.021       .  S
Zn50         O52   1.969       .  S
Zn50         O58   2.034       .  S
Zn50         O61   2.015       .  S
Zn50       O1103   2.028   1_554  S
Zn51         O52   1.981       .  S
Zn51         O59   2.057       .  S
Zn51         O62   2.046       .  S
Zn51         O63   2.041       .  S
O53          C65   1.276       .  A
O54          C66   1.275       .  A
O55       Zn1098   2.028       .  S
O55          C67   1.274       .  A
O56          C65   1.274       .  A
O57       Zn1096   2.031       .  S
O57          C67   1.274       .  A
O58          C66   1.275       .  A
O59          C68   1.279       .  A
O60          C69   1.273       .  A
O61          C68   1.274       .  A
O62          C69   1.275       .  A
O63          C70   1.277       .  A
O64          C70   1.275       .  A
C65         C868   1.487       .  S
C66        C1012   1.488       .  S
C68         C761   1.490       .  S
C70         C785   1.488       .  S
C71          N72   1.372       .  A
C71          N76   1.359       .  A
C71         C772   1.480       .  S
N72          C73   1.370       .  A
C73          N74   1.355       .  A
C73         C737   1.482       .  S
N74          C75   1.349       .  A
C75          N76   1.350       .  A
C75          C79   1.463       .  S
C77          N78   1.356       .  A
C77          N82   1.365       .  A
C77         C724   1.480       .  S
N78          C79   1.350       .  A
C79          N80   1.352       .  A
N80          C81   1.359       .  A
C81          N82   1.367       .  A
C81         C820   1.474       .  S
Zn83         O87   1.964       .  S
Zn83         O88   2.023       .  S
Zn83         O92   2.019       .  S
Zn83         O99   2.030       .  S
Zn84         O87   1.967       .  S
Zn84         O89   2.037       .  S
Zn84         O91   2.014       .  S
Zn84         O95   2.035       .  S
Zn85         O87   1.964       .  S
Zn85         O90   2.030       .  S
Zn85         O93   2.029       .  S
Zn85         O96   2.021       .  S
Zn86         O87   1.970       .  S
Zn86         O94   2.030       .  S
Zn86         O97   2.020       .  S
Zn86         O98   2.034       .  S
O88         C100   1.274       .  A
O89         C101   1.276       .  A
O90         C102   1.275       .  A
O91         C100   1.274       .  A
O92         C102   1.274       .  A
O93         C101   1.275       .  A
O94         C103   1.275       .  A
O95         C104   1.276       .  A
O96         C103   1.276       .  A
O97         C104   1.274       .  A
O98         C105   1.275       .  A
O99         C105   1.276       .  A
C100        C929   1.482       .  S
C101        C700   1.491       .  S
C102        C126   1.472       .  S
C103        C713   1.484       .  S
C104        C123   1.474       .  S
C105        C676   1.490       .  S
Zn106       O110   1.960       .  S
Zn106       O115   2.038       .  S
Zn106       O122   2.010       .  S
Zn106      O1159   2.028   1_554  S
Zn107       O110   1.975       .  S
Zn107       O112   2.036       .  S
Zn107       O118   2.034       .  S
Zn107      O1162   2.025   1_554  S
Zn108       O110   1.959       .  S
Zn108       O113   2.031       .  S
Zn108       O116   2.007       .  S
Zn108       O119   2.013       .  S
Zn109       O110   1.980       .  S
Zn109       O117   2.034       .  S
Zn109       O120   2.035       .  S
Zn109       O121   2.041       .  S
O111      Zn1154   2.028       .  S
O111        C123   1.274       .  A
O112        C124   1.276       .  A
O113        C125   1.274       .  A
O114      Zn1155   2.025       .  S
O114        C123   1.274       .  A
O115        C125   1.276       .  A
O116        C124   1.274       .  A
O117        C126   1.275       .  A
O118        C127   1.276       .  A
O119        C126   1.273       .  A
O120        C127   1.276       .  A
O121        C128   1.276       .  A
O122        C128   1.275       .  A
C124        C617   1.484       .  S
C125        C892   1.489       .  S
C127        C748   1.486       .  S
C128        C641   1.486       .  S
C129        N130   1.365       .  A
C129        N134   1.358       .  A
C129        C604   1.475       .  S
N130        C131   1.364       .  A
C131        N132   1.357       .  A
C131        C628   1.471       .  S
N132        C133   1.352       .  A
C133        N134   1.353       .  A
C133        C137   1.465       .  S
C135        N136   1.358       .  A
C135        N140   1.368       .  A
C135        C665   1.480       .  S
N136        C137   1.352       .  A
C137        N138   1.351       .  A
N138        C139   1.357       .  A
C139        N140   1.369       .  A
C139        C580   1.480       .  S
C141        N142   1.368       .  A
C141        N146   1.359       .  A
C141        C545   1.482       .  S
N142        C143   1.368   1_545  A
C143        N144   1.357       .  A
C143        C689   1.478       .  S
N144        C145   1.352   1_565  A
C145        N146   1.353       .  A
C145        C151   1.468       .  S
C147        N148   1.365   1_565  A
C147       N1200   1.359   1_554  A
C147        C652   1.480       .  S
N148        C149   1.365       .  A
C149       N1198   1.358   1_554  A
C149        C521   1.473       .  S
N150        C151   1.353       .  A
N150       C1197   1.358       .  A
C151        N152   1.353   1_545  A
N152       C1195   1.359       .  A
Zn153       O157   1.973       .  S
Zn153       O158   2.029       .  S
Zn153       O162   2.027       .  S
Zn153       O169   2.038       .  S
Zn154       O157   1.972       .  S
Zn154       O159   2.035       .  S
Zn154       O161   2.025       .  S
Zn154       O165   2.042       .  S
Zn155       O157   1.973       .  S
Zn155       O160   2.036       .  S
Zn155       O163   2.029       .  S
Zn155       O166   2.027       .  S
Zn156       O157   1.961       .  S
Zn156       O164   2.021       .  S
Zn156       O167   2.022       .  S
Zn156       O168   2.022       .  S
O158        C170   1.275       .  A
O159        C171   1.274       .  A
O160        C172   1.276       .  A
O161        C170   1.276       .  A
O162        C172   1.275       .  A
O163        C171   1.274       .  A
O164        C173   1.275       .  A
O165        C174   1.276       .  A
O166        C173   1.275       .  A
O167        C174   1.275       .  A
O168        C175   1.273       .  A
O169        C175   1.275       .  A
C170        C508   1.486       .  S
C171        C195   1.468       .  S
C172        C569   1.486       .  S
C173        C473   1.486       .  S
C174        C556   1.489       .  S
C175        C197   1.467       .  S
Zn176       O180   1.955       .  S
Zn176       O181   2.007       .  S
Zn176       O192   2.009       .  S
Zn176      O1233   2.017   1_554  S
Zn177       O180   1.973       .  S
Zn177       O182   2.027       .  S
Zn177       O184   2.035       .  S
Zn177       O188   2.041       .  S
Zn178       O180   1.971       .  S
Zn178       O186   2.028       .  S
Zn178       O189   2.037       .  S
Zn178      O1231   2.045   1_554  S
Zn179       O180   1.967       .  S
Zn179       O187   2.021       .  S
Zn179       O190   2.018       .  S
Zn179       O191   2.032       .  S
O181        C193   1.273       .  A
O182        C194   1.276       .  A
O183      Zn1226   2.045       .  S
O183        C195   1.275       .  A
O184        C193   1.276       .  A
O185      Zn1224   2.017       .  S
O185        C195   1.272       .  A
O186        C194   1.276       .  A
O187        C196   1.275       .  A
O188        C197   1.275       .  A
O189        C196   1.277       .  A
O190        C197   1.272       .  A
O191        C198   1.274       .  A
O192        C198   1.273       .  A
C193        C593   1.483       .  S
C194        C425   1.487       .  S
C196        C532   1.487       .  S
C198        C449   1.484       .  S
C199        N200   1.355       .  A
C199        N204   1.366       .  A
C199        C401   1.475       .  S
N200        C201   1.351       .  A
C201        N202   1.352       .  A
C201        C209   1.462       .  S
N202        C203   1.359       .  A
C203        N204   1.367       .  A
C203        C436   1.474       .  S
C205        N206   1.367       .  A
C205        N210   1.358       .  A
C205        C484   1.469       .  S
N206        C207   1.367       .  A
C207        N208   1.356       .  A
C207        C377   1.487       .  S
N208        C209   1.348       .  A
C209        N210   1.351       .  A
C211        N212   1.359       .  A
C211        N216   1.367       .  A
C211        C353   1.479       .  S
N212        C213   1.352   1_545  A
C213        N214   1.351       .  A
C213        C219   1.464       .  S
N214        C215   1.356       .  A
C215        N216   1.366   1_565  A
C215        C833   1.477       .  S
C217        N222   1.367       .  A
C217       N1266   1.356       .  A
C217        C796   1.474       .  S
N218        C219   1.352       .  A
N218       C1265   1.356       .  A
C219        N220   1.352   1_565  A
N220       C1269   1.358       .  A
C221        N222   1.368   1_545  A
C221       N1268   1.358       .  A
C221        C340   1.478       .  S
C223        N224   1.369   1_455  A
C223        N228   1.359       .  A
C223        C316   1.479       .  S
N224        C225   1.368       .  A
C225        N226   1.357       .  A
C225        C497   1.484       .  S
N226        C227   1.350       .  A
C227        N228   1.351   1_655  A
C227        C231   1.467       .  S
C229        N234   1.363       .  A
C229       N1278   1.357       .  A
C229        C460   1.472       .  S
N230        C231   1.352       .  A
N230       C1277   1.357       .  A
C231        N232   1.353   1_655  A
N232       C1281   1.360       .  A
C233        N234   1.364   1_455  A
C233       N1280   1.360       .  A
C233        C281   1.474       .  S
Zn235       O239   1.961       .  S
Zn235       O240   2.013       .  S
Zn235       O244   2.025       .  S
Zn235       O251   2.021       .  S
Zn236       O239   1.974       .  S
Zn236       O241   2.027       .  S
Zn236       O243   2.030       .  S
Zn236       O247   2.034       .  S
Zn237       O239   1.958       .  S
Zn237       O242   2.027       .  S
Zn237       O245   2.016       .  S
Zn237       O248   2.004       .  S
Zn238       O239   1.974       .  S
Zn238       O246   2.037       .  S
Zn238       O249   2.039       .  S
Zn238       O250   2.042       .  S
O240        C252   1.274       .  A
O241        C253   1.274       .  A
O242        C254   1.273       .  A
O243        C252   1.276       .  A
O244        C254   1.273       .  A
O245        C253   1.274       .  A
O246        C255   1.276       .  A
O247        C256   1.274       .  A
O248        C255   1.274       .  A
O249        C256   1.276       .  A
O250        C257   1.276       .  A
O251        C257   1.275       .  A
C252        C364   1.482       .  S
C253        C388   1.484       .  S
C254        C279   1.465       .  S
C255        C953   1.484       .  S
C256        C277   1.470       .  S
C257        C305   1.487       .  S
Zn258       O262   1.970       .  S
Zn258       O263   2.027       .  S
Zn258       O274   2.030       .  S
Zn258      O1315   2.036   1_554  S
Zn259       O262   1.976       .  S
Zn259       O264   2.029       .  S
Zn259       O266   2.027       .  S
Zn259       O270   2.033       .  S
Zn260       O262   1.965       .  S
Zn260       O268   2.004       .  S
Zn260       O271   2.044       .  S
Zn260      O1313   2.036   1_554  S
Zn261       O262   1.961       .  S
Zn261       O269   2.022       .  S
Zn261       O272   2.020       .  S
Zn261       O273   2.022       .  S
O263        C275   1.275       .  A
O264        C276   1.274       .  A
O265      Zn1308   2.036       .  S
O265        C277   1.275       .  A
O266        C275   1.275       .  A
O267      Zn1306   2.036       .  S
O267        C277   1.275       .  A
O268        C276   1.273       .  A
O269        C278   1.274       .  A
O270        C279   1.274       .  A
O271        C278   1.277       .  A
O272        C279   1.273       .  A
O273        C280   1.275       .  A
O274        C280   1.276       .  A
C275       C1036   1.483       .  S
C276        C292   1.479       .  S
C278        C329   1.490       .  S
C280        C412   1.486       .  S
C281        C282   1.405       .  A
C281        C286   1.402       .  A
C282        C283   1.404       .  A
C282        H295   1.083       .  S
C283        C284   1.405       .  A
C283        H296   1.083       .  S
C284        C285   1.407       .  A
C284        C287   1.487       .  S
C285        C286   1.391       .  A
C285       H1345   1.082       .  S
C286       H1346   1.084       .  S
C287        C288   1.348       .  D
C287        H299   1.085       .  S
C288        C289   1.481       .  S
C288       H1348   1.086       .  S
C289        C290   1.401       .  A
C289        C294   1.407       .  A
C290        C291   1.391       .  A
C290       H1349   1.084       .  S
C291        C292   1.403       .  A
C291       H1350   1.083       .  S
C292        C293   1.408       .  A
C293        C294   1.404       .  A
C293        H303   1.083       .  S
C294        H304   1.082       .  S
H297       C1333   1.082       .  S
H298       C1334   1.084       .  S
H300       C1336   1.086       .  S
H301       C1338   1.084       .  S
H302       C1339   1.083       .  S
C305        C306   1.406       .  A
C305        C310   1.408       .  A
C306        C307   1.399       .  A
C306        H319   1.083       .  S
C307        C308   1.403       .  A
C307        H320   1.083       .  S
C308        C309   1.408       .  A
C308        C311   1.488       .  S
C309        C310   1.404       .  A
C309        H321   1.082       .  S
C310        H322   1.083       .  S
C311        C312   1.349       .  D
C311        H323   1.086       .  S
C312        C313   1.492       .  S
C312        H324   1.086       .  S
C313        C314   1.408       .  A
C313        C318   1.406       .  A
C314        C315   1.407       .  A
C314        H325   1.083       .  S
C315        C316   1.404       .  A
C315        H326   1.083       .  S
C316        C317   1.404       .  A
C317        C318   1.395       .  A
C317        H327   1.084       .  S
C318        H328   1.082       .  S
C329        C330   1.407       .  A
C329        C334   1.406       .  A
C330        C331   1.400       .  A
C330        H343   1.083       .  S
C331        C332   1.404       .  A
C331        H344   1.083       .  S
C332        C333   1.411       .  A
C332        C335   1.496       .  S
C333        C334   1.403       .  A
C333        H345   1.081       .  S
C334       H1394   1.083       .  S
C335        C336   1.350       .  D
C335        H347   1.085       .  S
C336        C337   1.493       .  S
C336        H348   1.084       .  S
C337        C338   1.403       .  A
C337        C342   1.412       .  A
C338        C339   1.396       .  A
C338       H1397   1.084       .  S
C339        C340   1.403       .  A
C339       H1398   1.084       .  S
C340        C341   1.404       .  A
C341        C342   1.407       .  A
C341        H351   1.083       .  S
C342        H352   1.081       .  S
H346       C1382   1.083       .  S
H349       C1386   1.084       .  S
H350       C1387   1.084       .  S
C353        C354   1.404       .  A
C353        C358   1.405       .  A
C354        C355   1.404       .  A
C354        H367   1.083       .  S
C355        C356   1.406       .  A
C355        H368   1.083       .  S
C356        C357   1.406       .  A
C356        C359   1.487       .  S
C357        C358   1.395       .  A
C357        H369   1.082       .  S
C358        H370   1.083       .  S
C359        C360   1.347       .  D
C359        H371   1.086       .  S
C360        C361   1.485       .  S
C360        H372   1.086       .  S
C361        C362   1.402       .  A
C361        C366   1.408       .  A
C362        C363   1.397       .  A
C362        H373   1.083       .  S
C363        C364   1.405       .  A
C363        H374   1.083       .  S
C364        C365   1.406       .  A
C365        C366   1.401       .  A
C365        H375   1.083       .  S
C366        H376   1.082       .  S
C377        C378   1.407       .  A
C377        C382   1.408       .  A
C378        C379   1.408       .  A
C378        H391   1.083       .  S
C379        C380   1.407       .  A
C379        H392   1.083       .  S
C380        C381   1.402       .  A
C380        C383   1.486       .  S
C381        C382   1.388       .  A
C381        H393   1.083       .  S
C382        H394   1.083       .  S
C383        C384   1.349       .  D
C383        H395   1.085       .  S
C384        C385   1.485       .  S
C384        H396   1.087       .  S
C385        C386   1.403       .  A
C385        C390   1.407       .  A
C386        C387   1.395       .  A
C386        H397   1.084       .  S
C387        C388   1.405       .  A
C387        H398   1.083       .  S
C388        C389   1.407       .  A
C389        C390   1.402       .  A
C389        H399   1.083       .  S
C390        H400   1.081       .  S
C401        C402   1.402       .  A
C401        C406   1.404       .  A
C402        C403   1.404       .  A
C402        H415   1.083       .  S
C403        C404   1.408       .  A
C403        H416   1.083       .  S
C404        C405   1.407       .  A
C404        C407   1.492       .  S
C405        C406   1.396       .  A
C405        H417   1.081       .  S
C406        H418   1.084       .  S
C407        C408   1.352       .  D
C407        H419   1.084       .  S
C408        C409   1.492       .  S
C408        H420   1.085       .  S
C409        C410   1.405       .  A
C409        C414   1.409       .  A
C410        C411   1.398       .  A
C410        H421   1.083       .  S
C411        C412   1.406       .  A
C411        H422   1.083       .  S
C412        C413   1.407       .  A
C413        C414   1.401       .  A
C413        H423   1.083       .  S
C414        H424   1.080       .  S
C425        C426   1.407       .  A
C425        C430   1.406       .  A
C426        C427   1.401       .  A
C426        H439   1.083       .  S
C427        C428   1.404       .  A
C427        H440   1.083       .  S
C428        C429   1.409       .  A
C428        C431   1.492       .  S
C429        C430   1.399       .  A
C429        H441   1.081       .  S
C430        H442   1.083       .  S
C431        C432   1.348       .  D
C431        H443   1.085       .  S
C432        C433   1.488       .  S
C432        H444   1.085       .  S
C433        C434   1.402       .  A
C433        C438   1.411       .  A
C434        C435   1.394       .  A
C434        H445   1.084       .  S
C435        C436   1.403       .  A
C435        H446   1.083       .  S
C436        C437   1.403       .  A
C437        C438   1.405       .  A
C437        H447   1.083       .  S
C438        H448   1.081       .  S
C449        C450   1.404       .  A
C449        C454   1.408       .  A
C450        C451   1.393       .  A
C450       H1511   1.083       .  S
C451        C452   1.404       .  A
C451       H1512   1.084       .  S
C452        C453   1.409       .  A
C452        C455   1.489       .  S
C453        C454   1.404       .  A
C453        H465   1.080       .  S
C454        H466   1.083       .  S
C455        C456   1.350       .  D
C455        H467   1.086       .  S
C456        C457   1.489       .  S
C456        H468   1.084       .  S
C457        C458   1.406       .  A
C457        C462   1.407       .  A
C458        C459   1.404       .  A
C458        H469   1.083       .  S
C459        C460   1.404       .  A
C459        H470   1.083       .  S
C460        C461   1.402       .  A
C461        C462   1.393       .  A
C461       H1519   1.084       .  S
C462       H1520   1.082       .  S
H463       C1498   1.083       .  S
H464       C1499   1.084       .  S
H471       C1509   1.084       .  S
H472       C1510   1.082       .  S
C473        C474   1.404       .  A
C473        C478   1.407       .  A
C474        C475   1.396       .  A
C474        H487   1.083       .  S
C475        C476   1.405       .  A
C475        H488   1.083       .  S
C476        C477   1.409       .  A
C476        C479   1.492       .  S
C477        C478   1.403       .  A
C477        H489   1.080       .  S
C478        H490   1.083       .  S
C479        C480   1.351       .  D
C479        H491   1.085       .  S
C480        C481   1.490       .  S
C480        H492   1.083       .  S
C481        C482   1.407       .  A
C481        C486   1.407       .  A
C482        C483   1.404       .  A
C482        H493   1.083       .  S
C483        C484   1.402       .  A
C483        H494   1.083       .  S
C484        C485   1.401       .  A
C485        C486   1.395       .  A
C485        H495   1.084       .  S
C486        H496   1.082       .  S
C497        C498   1.406       .  A
C497        C502   1.407       .  A
C498        C499   1.392       .  A
C498        H511   1.083       .  S
C499        C500   1.400       .  A
C499        H512   1.084       .  S
C500        C501   1.411       .  A
C500        C503   1.487       .  S
C501        C502   1.409       .  A
C501        H513   1.082       .  S
C502        H514   1.083       .  S
C503        C504   1.345       .  D
C503        H515   1.088       .  S
C504        C505   1.489       .  S
C504        H516   1.086       .  S
C505        C506   1.403       .  A
C505        C510   1.407       .  A
C506        C507   1.403       .  A
C506        H517   1.083       .  S
C507        C508   1.408       .  A
C507        H518   1.083       .  S
C508        C509   1.406       .  A
C509        C510   1.398       .  A
C509        H519   1.083       .  S
C510        H520   1.083       .  S
C521        C522   1.403       .  A
C521        C526   1.402       .  A
C522        C523   1.405       .  A
C522        H535   1.083       .  S
C523        C524   1.408       .  A
C523        H536   1.083       .  S
C524        C525   1.406       .  A
C524        C527   1.489       .  S
C525        C526   1.394       .  A
C525        H537   1.082       .  S
C526        H538   1.084       .  S
C527        C528   1.349       .  D
C527        H539   1.086       .  S
C528        C529   1.487       .  S
C528        H540   1.086       .  S
C529        C530   1.403       .  A
C529        C534   1.407       .  A
C530        C531   1.399       .  A
C530        H541   1.084       .  S
C531        C532   1.407       .  A
C531        H542   1.083       .  S
C532        C533   1.407       .  A
C533        C534   1.402       .  A
C533        H543   1.083       .  S
C534        H544   1.082       .  S
C545        C546   1.404       .  A
C545        C550   1.405       .  A
C546        C547   1.406       .  A
C546        H559   1.083       .  S
C547        C548   1.408       .  A
C547        H560   1.083       .  S
C548        C549   1.406       .  A
C548        C551   1.493       .  S
C549        C550   1.397       .  A
C549        H561   1.082       .  S
C550        H562   1.083       .  S
C551        C552   1.349       .  D
C551        H563   1.086       .  S
C552        C553   1.490       .  S
C552        H564   1.086       .  S
C553        C554   1.403       .  A
C553        C558   1.408       .  A
C554        C555   1.399       .  A
C554        H565   1.083       .  S
C555        C556   1.407       .  A
C555        H566   1.083       .  S
C556        C557   1.408       .  A
C557        C558   1.404       .  A
C557        H567   1.083       .  S
C558        H568   1.082       .  S
C569        C570   1.405       .  A
C569        C574   1.407       .  A
C570        C571   1.401       .  A
C570        H583   1.083       .  S
C571        C572   1.404       .  A
C571        H584   1.083       .  S
C572        C573   1.407       .  A
C572        C575   1.489       .  S
C573        C574   1.401       .  A
C573        H585   1.082       .  S
C574        H586   1.083       .  S
C575        C576   1.350       .  D
C575        H587   1.086       .  S
C576        C577   1.491       .  S
C576        H588   1.086       .  S
C577        C578   1.408       .  A
C577        C582   1.406       .  A
C578        C579   1.407       .  A
C578        H589   1.083       .  S
C579        C580   1.404       .  A
C579        H590   1.083       .  S
C580        C581   1.405       .  A
C581        C582   1.395       .  A
C581        H591   1.084       .  S
C582        H592   1.082       .  S
C593        C594   1.406       .  A
C593        C598   1.406       .  A
C594        C595   1.396       .  A
C594        H607   1.083       .  S
C595        C596   1.402       .  A
C595        H608   1.084       .  S
C596        C597   1.408       .  A
C596        C599   1.484       .  S
C597        C598   1.402       .  A
C597        H609   1.082       .  S
C598        H610   1.083       .  S
C599        C600   1.346       .  D
C599        H611   1.087       .  S
C600        C601   1.486       .  S
C600        H612   1.086       .  S
C601        C602   1.406       .  A
C601        C606   1.405       .  A
C602        C603   1.404       .  A
C602        H613   1.083       .  S
C603        C604   1.404       .  A
C603        H614   1.083       .  S
C604        C605   1.404       .  A
C605        C606   1.393       .  A
C605        H615   1.084       .  S
C606        H616   1.083       .  S
C617        C618   1.404       .  A
C617        C622   1.408       .  A
C618        C619   1.392       .  A
C618        H631   1.083       .  S
C619        C620   1.403       .  A
C619        H632   1.084       .  S
C620        C621   1.409       .  A
C620        C623   1.487       .  S
C621        C622   1.405       .  A
C621        H633   1.081       .  S
C622        H634   1.083       .  S
C623        C624   1.349       .  D
C623        H635   1.087       .  S
C624        C625   1.488       .  S
C624        H636   1.084       .  S
C625        C626   1.406       .  A
C625        C630   1.407       .  A
C626        C627   1.405       .  A
C626        H637   1.083       .  S
C627        C628   1.404       .  A
C627        H638   1.083       .  S
C628        C629   1.401       .  A
C629        C630   1.392       .  A
C629        H639   1.084       .  S
C630        H640   1.082       .  S
C641        C642   1.403       .  A
C641        C646   1.410       .  A
C642        C643   1.391       .  A
C642        H655   1.083       .  S
C643        C644   1.402       .  A
C643       H1704   1.084       .  S
C644        C645   1.409       .  A
C644        C647   1.488       .  S
C645        C646   1.408       .  A
C645        H657   1.081       .  S
C646        H658   1.083       .  S
C647        C648   1.350       .  D
C647        H659   1.085       .  S
C648        C649   1.494       .  S
C648        H660   1.085       .  S
C649        C650   1.407       .  A
C649        C654   1.408       .  A
C650        C651   1.407       .  A
C650        H661   1.083       .  S
C651        C652   1.405       .  A
C651        H662   1.083       .  S
C652        C653   1.403       .  A
C653        C654   1.393       .  A
C653       H1711   1.084   1_554  S
C654        H664   1.082       .  S
H656       C1691   1.084       .  S
H663       C1701   1.084       .  S
C665        C666   1.403       .  A
C665        C670   1.405       .  A
C666        C667   1.394       .  A
C666        H679   1.084       .  S
C667        C668   1.402       .  A
C667        H680   1.084       .  S
C668        C669   1.412       .  A
C668        C671   1.492       .  S
C669        C670   1.409       .  A
C669        H681   1.082       .  S
C670        H682   1.083       .  S
C671        C672   1.350       .  D
C671        H683   1.085       .  S
C672        C673   1.496       .  S
C672        H684   1.085       .  S
C673        C674   1.405       .  A
C673        C678   1.410       .  A
C674        C675   1.403       .  A
C674        H685   1.083       .  S
C675        C676   1.408       .  A
C675        H686   1.083       .  S
C676        C677   1.406       .  A
C677        C678   1.400       .  A
C677        H687   1.083       .  S
C678        H688   1.081       .  S
C689        C690   1.404       .  A
C689        C694   1.404       .  A
C690        C691   1.397       .  A
C690        H703   1.083       .  S
C691        C692   1.403       .  A
C691        H704   1.084       .  S
C692        C693   1.411       .  A
C692        C695   1.492       .  S
C693        C694   1.407       .  A
C693        H705   1.082       .  S
C694        H706   1.083       .  S
C695        C696   1.350       .  D
C695        H707   1.085       .  S
C696        C697   1.496       .  S
C696        H708   1.085       .  S
C697        C698   1.405       .  A
C697        C702   1.410       .  A
C698        C699   1.401       .  A
C698        H709   1.083       .  S
C699        C700   1.407       .  A
C699        H710   1.083       .  S
C700        C701   1.407       .  A
C701        C702   1.402       .  A
C701        H711   1.083       .  S
C702        H712   1.081       .  S
C713        C714   1.404       .  A
C713        C718   1.407       .  A
C714        C715   1.396       .  A
C714        H727   1.083       .  S
C715        C716   1.404       .  A
C715        H728   1.084       .  S
C716        C717   1.410       .  A
C716        C719   1.490       .  S
C717        C718   1.403       .  A
C717        H729   1.080       .  S
C718        H730   1.083       .  S
C719        C720   1.350       .  D
C719        H731   1.086       .  S
C720        C721   1.491       .  S
C720        H732   1.084       .  S
C721        C722   1.408       .  A
C721        C726   1.406       .  A
C722        C723   1.406       .  A
C722        H733   1.083       .  S
C723        C724   1.404       .  A
C723        H734   1.083       .  S
C724        C725   1.404       .  A
C725        C726   1.391       .  A
C725        H735   1.084       .  S
C726        H736   1.081       .  S
C737        C738   1.404       .  A
C737        C742   1.406       .  A
C738        C739   1.392       .  A
C738        H751   1.084       .  S
C739        C740   1.401       .  A
C739        H752   1.083       .  S
C740        C741   1.412       .  A
C740        C743   1.490       .  S
C741        C742   1.411       .  A
C741        H753   1.082       .  S
C742        H754   1.083       .  S
C743        C744   1.347       .  D
C743        H755   1.087       .  S
C744        C745   1.491       .  S
C744        H756   1.085       .  S
C745        C746   1.404       .  A
C745        C750   1.408       .  A
C746        C747   1.403       .  A
C746        H757   1.083       .  S
C747        C748   1.407       .  A
C747        H758   1.083       .  S
C748        C749   1.405       .  A
C749        C750   1.400       .  A
C749        H759   1.083       .  S
C750        H760   1.083       .  S
C761        C762   1.408       .  A
C761        C766   1.407       .  A
C762        C763   1.399       .  A
C762        H775   1.083       .  S
C763        C764   1.402       .  A
C763        H776   1.083       .  S
C764        C765   1.408       .  A
C764        C767   1.490       .  S
C765        C766   1.405       .  A
C765        H777   1.082       .  S
C766        H778   1.083       .  S
C767        C768   1.349       .  D
C767        H779   1.086       .  S
C768        C769   1.493       .  S
C768        H780   1.086       .  S
C769        C770   1.408       .  A
C769        C774   1.406       .  A
C770        C771   1.406       .  A
C770        H781   1.083       .  S
C771        C772   1.403       .  A
C771        H782   1.083       .  S
C772        C773   1.406       .  A
C773        C774   1.397       .  A
C773        H783   1.084       .  S
C774        H784   1.082       .  S
C785        C786   1.407       .  A
C785        C790   1.407       .  A
C786        C787   1.398       .  A
C786        H799   1.083       .  S
C787        C788   1.403       .  A
C787        H800   1.084       .  S
C788        C789   1.409       .  A
C788        C791   1.491       .  S
C789        C790   1.403       .  A
C789        H801   1.082       .  S
C790        H802   1.083       .  S
C791        C792   1.347       .  D
C791        H803   1.087       .  S
C792        C793   1.488       .  S
C792        H804   1.086       .  S
C793        C794   1.402       .  A
C793        C798   1.409       .  A
C794        C795   1.397       .  A
C794        H805   1.084       .  S
C795        C796   1.403       .  A
C795        H806   1.083       .  S
C796        C797   1.403       .  A
C797        C798   1.405       .  A
C797        H807   1.083       .  S
C798        H808   1.082       .  S
C809        C810   1.405       .  A
C809        C814   1.407       .  A
C810        C811   1.394       .  A
C810        H823   1.083       .  S
C811        C812   1.404       .  A
C811        H824   1.084       .  S
C812        C813   1.410       .  A
C812        C815   1.490       .  S
C813        C814   1.404       .  A
C813        H825   1.080       .  S
C814        H826   1.083       .  S
C815        C816   1.351       .  D
C815        H827   1.084       .  S
C816        C817   1.492       .  S
C816        H828   1.083       .  S
C817        C818   1.407       .  A
C817        C822   1.408       .  A
C818        C819   1.404       .  A
C818        H829   1.083       .  S
C819        C820   1.403       .  A
C819        H830   1.083       .  S
C820        C821   1.402       .  A
C821        C822   1.394       .  A
C821        H831   1.083       .  S
C822        H832   1.081       .  S
C833        C834   1.403       .  A
C833        C838   1.403       .  A
C834        C835   1.405       .  A
C834        H847   1.083       .  S
C835        C836   1.409       .  A
C835        H848   1.083       .  S
C836        C837   1.408       .  A
C836        C839   1.496       .  S
C837        C838   1.395       .  A
C837        H849   1.080       .  S
C838        H850   1.084       .  S
C839        C840   1.352       .  D
C839        H851   1.085       .  S
C840        C841   1.491       .  S
C840        H852   1.083       .  S
C841        C842   1.404       .  A
C841        C846   1.408       .  A
C842        C843   1.398       .  A
C842        H853   1.084       .  S
C843        C844   1.406       .  A
C843        H854   1.083       .  S
C844        C845   1.408       .  A
C845        C846   1.403       .  A
C845        H855   1.083       .  S
C846        H856   1.081       .  S
C857        C858   1.404       .  A
C857        C862   1.405       .  A
C858        C859   1.391       .  A
C858       H1919   1.084   1_554  S
C859        C860   1.400       .  A
C859       H1920   1.084   1_554  S
C860        C861   1.412       .  A
C860        C863   1.488       .  S
C861        C862   1.410       .  A
C861        H873   1.081       .  S
C862        H874   1.083       .  S
C863        C864   1.346       .  D
C863        H875   1.088       .  S
C864        C865   1.489       .  S
C864        H876   1.086       .  S
C865        C866   1.403       .  A
C865        C870   1.407       .  A
C866        C867   1.403       .  A
C866        H877   1.083       .  S
C867        C868   1.409       .  A
C867        H878   1.083       .  S
C868        C869   1.405       .  A
C869        C870   1.398       .  A
C869        H879   1.083       .  S
C870        H880   1.083       .  S
H871       C1906   1.084       .  S
H872       C1907   1.084       .  S
C881        C882   1.404   1_554  A
C881        C886   1.405       .  A
C882        C883   1.393   1_556  A
C882       H1943   1.084       .  S
C883        C884   1.402       .  A
C883       H1944   1.083   1_554  S
C884        C885   1.412       .  A
C884        C887   1.491       .  S
C885        C886   1.410       .  A
C885        H897   1.082       .  S
C886        H898   1.083       .  S
C887        C888   1.347       .  D
C887        H899   1.087       .  S
C888        C889   1.492       .  S
C888        H900   1.085       .  S
C889        C890   1.404       .  A
C889        C894   1.408       .  A
C890        C891   1.404       .  A
C890        H901   1.083       .  S
C891        C892   1.409       .  A
C891        H902   1.083       .  S
C892        C893   1.405       .  A
C893        C894   1.400       .  A
C893       H1951   1.083       .  S
C894        H904   1.083       .  S
H895       C1930   1.084       .  S
H896       C1931   1.083       .  S
H903       C1941   1.083       .  S
C905        C906   1.407       .  A
C905        C910   1.406       .  A
C906        C907   1.399       .  A
C906        H919   1.083       .  S
C907        C908   1.402       .  A
C907        H920   1.083       .  S
C908        C909   1.407       .  A
C908        C911   1.484       .  S
C909        C910   1.400       .  A
C909        H921   1.083       .  S
C910        H922   1.083       .  S
C911        C912   1.346       .  D
C911        H923   1.086       .  S
C912        C913   1.486       .  S
C912        H924   1.087       .  S
C913        C914   1.406       .  A
C913        C918   1.407       .  A
C914        C915   1.401       .  A
C914        H925   1.083       .  S
C915        C916   1.402       .  A
C915        H926   1.083       .  S
C916        C917   1.403       .  A
C917        C918   1.397       .  A
C917        H927   1.084       .  S
C918        H928   1.082       .  S
C929        C930   1.405       .  A
C929        C934   1.408       .  A
C930        C931   1.395       .  A
C930        H943   1.083       .  S
C931        C932   1.402       .  A
C931        H944   1.084       .  S
C932        C933   1.405       .  A
C932        C935   1.480       .  S
C933        C934   1.401       .  A
C933        H945   1.082       .  S
C934        H946   1.083       .  S
C935        C936   1.347       .  D
C935        H947   1.088       .  S
C936        C937   1.482       .  S
C936        H948   1.086       .  S
C937        C938   1.406       .  A
C937        C942   1.403       .  A
C938        C939   1.405       .  A
C938        H949   1.083       .  S
C939        C940   1.405       .  A
C939        H950   1.083       .  S
C940        C941   1.404       .  A
C941        C942   1.390       .  A
C941        H951   1.084       .  S
C942        H952   1.083       .  S
C953        C954   1.405       .  A
C953        C958   1.408       .  A
C954        C955   1.393       .  A
C954        H967   1.083       .  S
C955        C956   1.402       .  A
C955        H968   1.084       .  S
C956        C957   1.407       .  A
C956        C959   1.484       .  S
C957        C958   1.404       .  A
C957        H969   1.082       .  S
C958        H970   1.083       .  S
C959        C960   1.348       .  D
C959        H971   1.087       .  S
C960        C961   1.487       .  S
C960        H972   1.085       .  S
C961        C962   1.406       .  A
C961        C966   1.404       .  A
C962        C963   1.406       .  A
C962        H973   1.083       .  S
C963        C964   1.406       .  A
C963        H974   1.083       .  S
C964        C965   1.404       .  A
C965        C966   1.392       .  A
C965        H975   1.083       .  S
C966        H976   1.083       .  S
C977        C978   1.405       .  A
C977        C982   1.408       .  A
C978        C979   1.393       .  A
C978        H991   1.083       .  S
C979        C980   1.403       .  A
C979        H992   1.084       .  S
C980        C981   1.409       .  A
C980        C983   1.488       .  S
C981        C982   1.406       .  A
C981        H993   1.081       .  S
C982        H994   1.083       .  S
C983        C984   1.350       .  D
C983        H995   1.086       .  S
C984        C985   1.492       .  S
C984        H996   1.084       .  S
C985        C986   1.408       .  A
C985        C990   1.406       .  A
C986        C987   1.407       .  A
C986        H997   1.083       .  S
C987        C988   1.404       .  A
C987        H998   1.083       .  S
C988        C989   1.403       .  A
C989        C990   1.391       .  A
C989        H999   1.084       .  S
C990       H1000   1.082       .  S
C1001      C1002   1.405       .  A
C1001      C1006   1.402       .  A
C1002      C1003   1.408       .  A
C1002      H1015   1.083       .  S
C1003      C1004   1.408       .  A
C1003      H1016   1.083       .  S
C1004      C1005   1.407       .  A
C1004      C1007   1.494       .  S
C1005      C1006   1.393       .  A
C1005      H1017   1.082       .  S
C1006      H1018   1.084       .  S
C1007      C1008   1.352       .  D
C1007      H1019   1.084       .  S
C1008      C1009   1.491       .  S
C1008      H1020   1.086       .  S
C1009      C1010   1.404       .  A
C1009      C1014   1.409       .  A
C1010      C1011   1.394       .  A
C1010      H1021   1.084       .  S
C1011      C1012   1.404       .  A
C1011      H1022   1.083       .  S
C1012      C1013   1.409       .  A
C1013      C1014   1.406       .  A
C1013      H1023   1.083       .  S
C1014      H1024   1.081       .  S
C1025      C1026   1.404       .  A
C1025      C1030   1.405       .  A
C1026      C1027   1.404       .  A
C1026      H1039   1.083       .  S
C1027      C1028   1.406       .  A
C1027      H1040   1.083       .  S
C1028      C1029   1.405       .  A
C1028      C1031   1.485       .  S
C1029      C1030   1.395       .  A
C1029      H1041   1.083       .  S
C1030      H1042   1.083       .  S
C1031      C1032   1.347       .  D
C1031      H1043   1.086       .  S
C1032      C1033   1.483       .  S
C1032      H1044   1.086       .  S
C1033      C1034   1.403       .  A
C1033      C1038   1.406       .  A
C1034      C1035   1.400       .  A
C1034      H1045   1.083       .  S
C1035      C1036   1.406       .  A
C1035      H1046   1.083       .  S
C1036      C1037   1.406       .  A
C1037      C1038   1.399       .  A
C1037      H1047   1.083       .  S
C1038      H1048   1.083       .  S
C1049      N1050   1.358       .  A
C1049      N1054   1.367       .  A
C1049      C2073   1.478       .  S
N1050      C1051   1.352       .  A
C1051      N1052   1.352       .  A
C1051      C1057   1.464       .  S
N1052      C1053   1.357       .  A
C1053      N1054   1.366       .  A
C1053      C2049   1.477       .  S
C1055      N1056   1.357       .  A
C1055      N1060   1.366       .  A
C1055      C2036   1.477       .  S
N1056      C1057   1.350       .  A
C1057      N1058   1.351       .  A
N1058      C1059   1.359       .  A
C1059      N1060   1.367       .  A
C1059      C2012   1.479       .  S
C1061      N1062   1.366       .  A
C1061      N1066   1.359       .  A
C1061      C1964   1.473       .  S
N1062      C1063   1.364   1_455  A
C1063      N1064   1.356       .  A
C1063      C1988   1.475       .  S
N1064      C1065   1.349   1_655  A
C1065      N1066   1.353       .  A
C1065      C1069   1.464       .  S
C1067      N1072   1.369   1_655  A
C1067      C1929   1.481       .  S
N1068      C1069   1.351   1_655  A
C1069      N1070   1.349       .  A
C1071      N1072   1.369       .  A
C1071      C1905   1.478       .  S
Zn1073     O1077   1.971       .  S
Zn1073     O1078   2.022       .  S
Zn1073     O1082   2.044       .  S
Zn1073     O1089   2.033       .  S
Zn1074     O1077   1.979       .  S
Zn1074     O1079   2.046       .  S
Zn1074     O1081   2.031       .  S
Zn1074     O1085   2.033       .  S
Zn1075     O1077   1.951       .  S
Zn1075     O1080   2.019       .  S
Zn1075     O1083   2.002       .  S
Zn1075     O1086   2.008       .  S
Zn1076     O1077   1.969       .  S
Zn1076     O1084   2.035       .  S
Zn1076     O1087   2.029       .  S
Zn1076     O1088   2.028       .  S
O1078      C1090   1.275       .  A
O1079      C1091   1.276       .  A
O1080      C1092   1.272       .  A
O1081      C1090   1.276       .  A
O1082      C1092   1.275       .  A
O1083      C1091   1.273       .  A
O1084      C1093   1.275       .  A
O1085      C1094   1.274       .  A
O1086      C1093   1.274       .  A
O1087      C1094   1.274       .  A
O1088      C1095   1.276       .  A
O1089      C1095   1.276       .  A
C1090      C1953   1.484       .  S
C1091      C2025   1.486       .  S
C1092      C1117   1.469       .  S
C1093      C1857   1.485       .  S
C1094      C1115   1.467       .  S
C1095      C1892   1.489       .  S
Zn1096     O1100   1.964       .  S
Zn1096     O1101   2.031       .  S
Zn1096     O1112   2.020       .  S
Zn1097     O1100   1.962       .  S
Zn1097     O1102   2.020       .  S
Zn1097     O1104   2.029       .  S
Zn1097     O1108   2.021       .  S
Zn1098     O1100   1.969       .  S
Zn1098     O1106   2.034       .  S
Zn1098     O1109   2.015       .  S
Zn1099     O1100   1.981       .  S
Zn1099     O1107   2.057       .  S
Zn1099     O1110   2.046       .  S
Zn1099     O1111   2.041       .  S
O1101      C1113   1.276       .  A
O1102      C1114   1.275       .  A
O1103      C1115   1.274       .  A
O1104      C1113   1.274       .  A
O1105      C1115   1.274       .  A
O1106      C1114   1.275       .  A
O1107      C1116   1.279       .  A
O1108      C1117   1.273       .  A
O1109      C1116   1.274       .  A
O1110      C1117   1.275       .  A
O1111      C1118   1.277       .  A
O1112      C1118   1.275       .  A
C1113      C1916   1.487       .  S
C1114      C2060   1.488       .  S
C1116      C1809   1.490       .  S
C1118      C1833   1.488       .  S
C1119      N1120   1.372       .  A
C1119      N1124   1.359       .  A
C1119      C1820   1.480       .  S
N1120      C1121   1.370       .  A
C1121      N1122   1.355       .  A
C1121      C1785   1.482       .  S
N1122      C1123   1.349       .  A
C1123      N1124   1.350       .  A
C1123      C1127   1.463       .  S
C1125      N1126   1.356       .  A
C1125      N1130   1.365       .  A
C1125      C1772   1.480       .  S
N1126      C1127   1.350       .  A
C1127      N1128   1.352       .  A
N1128      C1129   1.359       .  A
C1129      N1130   1.367       .  A
C1129      C1868   1.474       .  S
Zn1131     O1135   1.964       .  S
Zn1131     O1136   2.023       .  S
Zn1131     O1140   2.019       .  S
Zn1131     O1147   2.030       .  S
Zn1132     O1135   1.967       .  S
Zn1132     O1137   2.037       .  S
Zn1132     O1139   2.014       .  S
Zn1132     O1143   2.035       .  S
Zn1133     O1135   1.964       .  S
Zn1133     O1138   2.030       .  S
Zn1133     O1141   2.029       .  S
Zn1133     O1144   2.021       .  S
Zn1134     O1135   1.970       .  S
Zn1134     O1142   2.030       .  S
Zn1134     O1145   2.020       .  S
Zn1134     O1146   2.034       .  S
O1136      C1148   1.274       .  A
O1137      C1149   1.276       .  A
O1138      C1150   1.275       .  A
O1139      C1148   1.274       .  A
O1140      C1150   1.274       .  A
O1141      C1149   1.275       .  A
O1142      C1151   1.275       .  A
O1143      C1152   1.276       .  A
O1144      C1151   1.276       .  A
O1145      C1152   1.274       .  A
O1146      C1153   1.275       .  A
O1147      C1153   1.276       .  A
C1148      C1977   1.482       .  S
C1149      C1748   1.491       .  S
C1150      C1174   1.472       .  S
C1151      C1761   1.484       .  S
C1152      C1171   1.474       .  S
C1153      C1724   1.490       .  S
Zn1154     O1158   1.960       .  S
Zn1154     O1163   2.038       .  S
Zn1154     O1170   2.010       .  S
Zn1155     O1158   1.975       .  S
Zn1155     O1160   2.036       .  S
Zn1155     O1166   2.034       .  S
Zn1156     O1158   1.959       .  S
Zn1156     O1161   2.031       .  S
Zn1156     O1164   2.007       .  S
Zn1156     O1167   2.013       .  S
Zn1157     O1158   1.980       .  S
Zn1157     O1165   2.034       .  S
Zn1157     O1168   2.035       .  S
Zn1157     O1169   2.041       .  S
O1159      C1171   1.274       .  A
O1160      C1172   1.276       .  A
O1161      C1173   1.274       .  A
O1162      C1171   1.274       .  A
O1163      C1173   1.276       .  A
O1164      C1172   1.274       .  A
O1165      C1174   1.275       .  A
O1166      C1175   1.276       .  A
O1167      C1174   1.273       .  A
O1168      C1175   1.276       .  A
O1169      C1176   1.276       .  A
O1170      C1176   1.275       .  A
C1172      C1665   1.484       .  S
C1173      C1940   1.489       .  S
C1175      C1796   1.486       .  S
C1176      C1689   1.486       .  S
C1177      N1178   1.365       .  A
C1177      N1182   1.358       .  A
C1177      C1652   1.475       .  S
N1178      C1179   1.364       .  A
C1179      N1180   1.357       .  A
C1179      C1676   1.471       .  S
N1180      C1181   1.352       .  A
C1181      N1182   1.353       .  A
C1181      C1185   1.465       .  S
C1183      N1184   1.358       .  A
C1183      N1188   1.368       .  A
C1183      C1713   1.480       .  S
N1184      C1185   1.352       .  A
C1185      N1186   1.351       .  A
N1186      C1187   1.357       .  A
C1187      N1188   1.369       .  A
C1187      C1628   1.480       .  S
C1189      N1190   1.368       .  A
C1189      N1194   1.359       .  A
C1189      C1593   1.482       .  S
N1190      C1191   1.368   1_545  A
C1191      N1192   1.357       .  A
C1191      C1737   1.478       .  S
N1192      C1193   1.352   1_565  A
C1193      N1194   1.353       .  A
C1193      C1199   1.468       .  S
C1195      N1196   1.365   1_565  A
C1195      C1700   1.480       .  S
N1196      C1197   1.365       .  A
C1197      C1569   1.473       .  S
N1198      C1199   1.353       .  A
C1199      N1200   1.353   1_545  A
Zn1201     O1205   1.973       .  S
Zn1201     O1206   2.029       .  S
Zn1201     O1210   2.027       .  S
Zn1201     O1217   2.038       .  S
Zn1202     O1205   1.972       .  S
Zn1202     O1207   2.035       .  S
Zn1202     O1209   2.025       .  S
Zn1202     O1213   2.042       .  S
Zn1203     O1205   1.973       .  S
Zn1203     O1208   2.036       .  S
Zn1203     O1211   2.029       .  S
Zn1203     O1214   2.027       .  S
Zn1204     O1205   1.961       .  S
Zn1204     O1212   2.021       .  S
Zn1204     O1215   2.022       .  S
Zn1204     O1216   2.022       .  S
O1206      C1218   1.275       .  A
O1207      C1219   1.274       .  A
O1208      C1220   1.276       .  A
O1209      C1218   1.276       .  A
O1210      C1220   1.275       .  A
O1211      C1219   1.274       .  A
O1212      C1221   1.275       .  A
O1213      C1222   1.276       .  A
O1214      C1221   1.275       .  A
O1215      C1222   1.275       .  A
O1216      C1223   1.273       .  A
O1217      C1223   1.275       .  A
C1218      C1556   1.486       .  S
C1219      C1243   1.468       .  S
C1220      C1617   1.486       .  S
C1221      C1521   1.486       .  S
C1222      C1604   1.489       .  S
C1223      C1245   1.467       .  S
Zn1224     O1228   1.955       .  S
Zn1224     O1229   2.007       .  S
Zn1224     O1240   2.009       .  S
Zn1225     O1228   1.973       .  S
Zn1225     O1230   2.027       .  S
Zn1225     O1232   2.035       .  S
Zn1225     O1236   2.041       .  S
Zn1226     O1228   1.971       .  S
Zn1226     O1234   2.028       .  S
Zn1226     O1237   2.037       .  S
Zn1227     O1228   1.967       .  S
Zn1227     O1235   2.021       .  S
Zn1227     O1238   2.018       .  S
Zn1227     O1239   2.032       .  S
O1229      C1241   1.273       .  A
O1230      C1242   1.276       .  A
O1231      C1243   1.275       .  A
O1232      C1241   1.276       .  A
O1233      C1243   1.272       .  A
O1234      C1242   1.276       .  A
O1235      C1244   1.275       .  A
O1236      C1245   1.275       .  A
O1237      C1244   1.277       .  A
O1238      C1245   1.272       .  A
O1239      C1246   1.274       .  A
O1240      C1246   1.273       .  A
C1241      C1641   1.483       .  S
C1242      C1473   1.487       .  S
C1244      C1580   1.487       .  S
C1246      C1497   1.484       .  S
C1247      N1248   1.355       .  A
C1247      N1252   1.366       .  A
C1247      C1449   1.475       .  S
N1248      C1249   1.351       .  A
C1249      N1250   1.352       .  A
C1249      C1257   1.462       .  S
N1250      C1251   1.359       .  A
C1251      N1252   1.367       .  A
C1251      C1484   1.474       .  S
C1253      N1254   1.367       .  A
C1253      N1258   1.358       .  A
C1253      C1532   1.469       .  S
N1254      C1255   1.367       .  A
C1255      N1256   1.356       .  A
C1255      C1425   1.487       .  S
N1256      C1257   1.348       .  A
C1257      N1258   1.351       .  A
C1259      N1260   1.359       .  A
C1259      N1264   1.367       .  A
C1259      C1401   1.479       .  S
N1260      C1261   1.352   1_545  A
C1261      N1262   1.351       .  A
C1261      C1267   1.464       .  S
N1262      C1263   1.356       .  A
C1263      N1264   1.366   1_565  A
C1263      C1881   1.477       .  S
C1265      N1270   1.367       .  A
C1265      C1844   1.474       .  S
N1266      C1267   1.352   1_554  A
C1267      N1268   1.352   1_566  A
C1269      N1270   1.368   1_545  A
C1269      C1388   1.478       .  S
C1271      N1272   1.369   1_455  A
C1271      N1276   1.359       .  A
C1271      C1364   1.479       .  S
N1272      C1273   1.368       .  A
C1273      N1274   1.357       .  A
C1273      C1545   1.484       .  S
N1274      C1275   1.350       .  A
C1275      N1276   1.351   1_655  A
C1275      C1279   1.467       .  S
C1277      N1282   1.363       .  A
C1277      C1508   1.472       .  S
N1278      C1279   1.352   1_554  A
C1279      N1280   1.353   1_656  A
C1281      N1282   1.364   1_455  A
C1281      C1329   1.474       .  S
Zn1283     O1287   1.961       .  S
Zn1283     O1288   2.013       .  S
Zn1283     O1292   2.025       .  S
Zn1283     O1299   2.021       .  S
Zn1284     O1287   1.974       .  S
Zn1284     O1289   2.027       .  S
Zn1284     O1291   2.030       .  S
Zn1284     O1295   2.034       .  S
Zn1285     O1287   1.958       .  S
Zn1285     O1290   2.027       .  S
Zn1285     O1293   2.016       .  S
Zn1285     O1296   2.004       .  S
Zn1286     O1287   1.974       .  S
Zn1286     O1294   2.037       .  S
Zn1286     O1297   2.039       .  S
Zn1286     O1298   2.042       .  S
O1288      C1300   1.274       .  A
O1289      C1301   1.274       .  A
O1290      C1302   1.273       .  A
O1291      C1300   1.276       .  A
O1292      C1302   1.273       .  A
O1293      C1301   1.274       .  A
O1294      C1303   1.276       .  A
O1295      C1304   1.274       .  A
O1296      C1303   1.274       .  A
O1297      C1304   1.276       .  A
O1298      C1305   1.276       .  A
O1299      C1305   1.275       .  A
C1300      C1412   1.482       .  S
C1301      C1436   1.484       .  S
C1302      C1327   1.465       .  S
C1303      C2001   1.484       .  S
C1304      C1325   1.470       .  S
C1305      C1353   1.487       .  S
Zn1306     O1310   1.970       .  S
Zn1306     O1311   2.027       .  S
Zn1306     O1322   2.030       .  S
Zn1307     O1310   1.976       .  S
Zn1307     O1312   2.029       .  S
Zn1307     O1314   2.027       .  S
Zn1307     O1318   2.033       .  S
Zn1308     O1310   1.965       .  S
Zn1308     O1316   2.004       .  S
Zn1308     O1319   2.044       .  S
Zn1309     O1310   1.961       .  S
Zn1309     O1317   2.022       .  S
Zn1309     O1320   2.020       .  S
Zn1309     O1321   2.022       .  S
O1311      C1323   1.275       .  A
O1312      C1324   1.274       .  A
O1313      C1325   1.275       .  A
O1314      C1323   1.275       .  A
O1315      C1325   1.275       .  A
O1316      C1324   1.273       .  A
O1317      C1326   1.274       .  A
O1318      C1327   1.274       .  A
O1319      C1326   1.277       .  A
O1320      C1327   1.273       .  A
O1321      C1328   1.275       .  A
O1322      C1328   1.276       .  A
C1323      C2084   1.483       .  S
C1324      C1340   1.479       .  S
C1326      C1377   1.490       .  S
C1328      C1460   1.486       .  S
C1329      C1330   1.405       .  A
C1329      C1334   1.402       .  A
C1330      C1331   1.404       .  A
C1330      H1343   1.083       .  S
C1331      C1332   1.405       .  A
C1331      H1344   1.083       .  S
C1332      C1333   1.407       .  A
C1332      C1335   1.487       .  S
C1333      C1334   1.391       .  A
C1335      C1336   1.348       .  D
C1335      H1347   1.085       .  S
C1336      C1337   1.481       .  S
C1337      C1338   1.401       .  A
C1337      C1342   1.407       .  A
C1338      C1339   1.391       .  A
C1339      C1340   1.403       .  A
C1340      C1341   1.408       .  A
C1341      C1342   1.404       .  A
C1341      H1351   1.083       .  S
C1342      H1352   1.082       .  S
C1353      C1354   1.406       .  A
C1353      C1358   1.408       .  A
C1354      C1355   1.399       .  A
C1354      H1367   1.083       .  S
C1355      C1356   1.403       .  A
C1355      H1368   1.083       .  S
C1356      C1357   1.408       .  A
C1356      C1359   1.488       .  S
C1357      C1358   1.404       .  A
C1357      H1369   1.082       .  S
C1358      H1370   1.083       .  S
C1359      C1360   1.349       .  D
C1359      H1371   1.086       .  S
C1360      C1361   1.492       .  S
C1360      H1372   1.086       .  S
C1361      C1362   1.408       .  A
C1361      C1366   1.406       .  A
C1362      C1363   1.407       .  A
C1362      H1373   1.083       .  S
C1363      C1364   1.404       .  A
C1363      H1374   1.083       .  S
C1364      C1365   1.404       .  A
C1365      C1366   1.395       .  A
C1365      H1375   1.084       .  S
C1366      H1376   1.082       .  S
C1377      C1378   1.407       .  A
C1377      C1382   1.406       .  A
C1378      C1379   1.400       .  A
C1378      H1391   1.083       .  S
C1379      C1380   1.404       .  A
C1379      H1392   1.083       .  S
C1380      C1381   1.411       .  A
C1380      C1383   1.496       .  S
C1381      C1382   1.403       .  A
C1381      H1393   1.081       .  S
C1383      C1384   1.350       .  D
C1383      H1395   1.085       .  S
C1384      C1385   1.493       .  S
C1384      H1396   1.084       .  S
C1385      C1386   1.403       .  A
C1385      C1390   1.412       .  A
C1386      C1387   1.396       .  A
C1387      C1388   1.403       .  A
C1388      C1389   1.404       .  A
C1389      C1390   1.407       .  A
C1389      H1399   1.083       .  S
C1390      H1400   1.081       .  S
C1401      C1402   1.404       .  A
C1401      C1406   1.405       .  A
C1402      C1403   1.404       .  A
C1402      H1415   1.083       .  S
C1403      C1404   1.406       .  A
C1403      H1416   1.083       .  S
C1404      C1405   1.406       .  A
C1404      C1407   1.487       .  S
C1405      C1406   1.395       .  A
C1405      H1417   1.082       .  S
C1406      H1418   1.083       .  S
C1407      C1408   1.347       .  D
C1407      H1419   1.086       .  S
C1408      C1409   1.485       .  S
C1408      H1420   1.086       .  S
C1409      C1410   1.402       .  A
C1409      C1414   1.408       .  A
C1410      C1411   1.397       .  A
C1410      H1421   1.083       .  S
C1411      C1412   1.405       .  A
C1411      H1422   1.083       .  S
C1412      C1413   1.406       .  A
C1413      C1414   1.401       .  A
C1413      H1423   1.083       .  S
C1414      H1424   1.082       .  S
C1425      C1426   1.407       .  A
C1425      C1430   1.408       .  A
C1426      C1427   1.408       .  A
C1426      H1439   1.083       .  S
C1427      C1428   1.407       .  A
C1427      H1440   1.083       .  S
C1428      C1429   1.402       .  A
C1428      C1431   1.486       .  S
C1429      C1430   1.388       .  A
C1429      H1441   1.083       .  S
C1430      H1442   1.083       .  S
C1431      C1432   1.349       .  D
C1431      H1443   1.085       .  S
C1432      C1433   1.485       .  S
C1432      H1444   1.087       .  S
C1433      C1434   1.403       .  A
C1433      C1438   1.407       .  A
C1434      C1435   1.395       .  A
C1434      H1445   1.084       .  S
C1435      C1436   1.405       .  A
C1435      H1446   1.083       .  S
C1436      C1437   1.407       .  A
C1437      C1438   1.402       .  A
C1437      H1447   1.083       .  S
C1438      H1448   1.081       .  S
C1449      C1450   1.402       .  A
C1449      C1454   1.404       .  A
C1450      C1451   1.404       .  A
C1450      H1463   1.083       .  S
C1451      C1452   1.408       .  A
C1451      H1464   1.083       .  S
C1452      C1453   1.407       .  A
C1452      C1455   1.492       .  S
C1453      C1454   1.396       .  A
C1453      H1465   1.081       .  S
C1454      H1466   1.084       .  S
C1455      C1456   1.352       .  D
C1455      H1467   1.084       .  S
C1456      C1457   1.492       .  S
C1456      H1468   1.085       .  S
C1457      C1458   1.405       .  A
C1457      C1462   1.409       .  A
C1458      C1459   1.398       .  A
C1458      H1469   1.083       .  S
C1459      C1460   1.406       .  A
C1459      H1470   1.083       .  S
C1460      C1461   1.407       .  A
C1461      C1462   1.401       .  A
C1461      H1471   1.083       .  S
C1462      H1472   1.080       .  S
C1473      C1474   1.407       .  A
C1473      C1478   1.406       .  A
C1474      C1475   1.401       .  A
C1474      H1487   1.083       .  S
C1475      C1476   1.404       .  A
C1475      H1488   1.083       .  S
C1476      C1477   1.409       .  A
C1476      C1479   1.492       .  S
C1477      C1478   1.399       .  A
C1477      H1489   1.081       .  S
C1478      H1490   1.083       .  S
C1479      C1480   1.348       .  D
C1479      H1491   1.085       .  S
C1480      C1481   1.488       .  S
C1480      H1492   1.085       .  S
C1481      C1482   1.402       .  A
C1481      C1486   1.411       .  A
C1482      C1483   1.394       .  A
C1482      H1493   1.084       .  S
C1483      C1484   1.403       .  A
C1483      H1494   1.083       .  S
C1484      C1485   1.403       .  A
C1485      C1486   1.405       .  A
C1485      H1495   1.083       .  S
C1486      H1496   1.081       .  S
C1497      C1498   1.404       .  A
C1497      C1502   1.408       .  A
C1498      C1499   1.393       .  A
C1499      C1500   1.404       .  A
C1500      C1501   1.409       .  A
C1500      C1503   1.489       .  S
C1501      C1502   1.404       .  A
C1501      H1513   1.080       .  S
C1502      H1514   1.083       .  S
C1503      C1504   1.350       .  D
C1503      H1515   1.086       .  S
C1504      C1505   1.489       .  S
C1504      H1516   1.084       .  S
C1505      C1506   1.406       .  A
C1505      C1510   1.407       .  A
C1506      C1507   1.404       .  A
C1506      H1517   1.083       .  S
C1507      C1508   1.404       .  A
C1507      H1518   1.083       .  S
C1508      C1509   1.402       .  A
C1509      C1510   1.393       .  A
C1521      C1522   1.404       .  A
C1521      C1526   1.407       .  A
C1522      C1523   1.396       .  A
C1522      H1535   1.083       .  S
C1523      C1524   1.405       .  A
C1523      H1536   1.083       .  S
C1524      C1525   1.409       .  A
C1524      C1527   1.492       .  S
C1525      C1526   1.403       .  A
C1525      H1537   1.080       .  S
C1526      H1538   1.083       .  S
C1527      C1528   1.351       .  D
C1527      H1539   1.085       .  S
C1528      C1529   1.490       .  S
C1528      H1540   1.083       .  S
C1529      C1530   1.407       .  A
C1529      C1534   1.407       .  A
C1530      C1531   1.404       .  A
C1530      H1541   1.083       .  S
C1531      C1532   1.402       .  A
C1531      H1542   1.083       .  S
C1532      C1533   1.401       .  A
C1533      C1534   1.395       .  A
C1533      H1543   1.084       .  S
C1534      H1544   1.082       .  S
C1545      C1546   1.406       .  A
C1545      C1550   1.407       .  A
C1546      C1547   1.392       .  A
C1546      H1559   1.083       .  S
C1547      C1548   1.400       .  A
C1547      H1560   1.084       .  S
C1548      C1549   1.411       .  A
C1548      C1551   1.487       .  S
C1549      C1550   1.409       .  A
C1549      H1561   1.082       .  S
C1550      H1562   1.083       .  S
C1551      C1552   1.345       .  D
C1551      H1563   1.088       .  S
C1552      C1553   1.489       .  S
C1552      H1564   1.086       .  S
C1553      C1554   1.403       .  A
C1553      C1558   1.407       .  A
C1554      C1555   1.403       .  A
C1554      H1565   1.083       .  S
C1555      C1556   1.408       .  A
C1555      H1566   1.083       .  S
C1556      C1557   1.406       .  A
C1557      C1558   1.398       .  A
C1557      H1567   1.083       .  S
C1558      H1568   1.083       .  S
C1569      C1570   1.403       .  A
C1569      C1574   1.402       .  A
C1570      C1571   1.405       .  A
C1570      H1583   1.083       .  S
C1571      C1572   1.408       .  A
C1571      H1584   1.083       .  S
C1572      C1573   1.406       .  A
C1572      C1575   1.489       .  S
C1573      C1574   1.394       .  A
C1573      H1585   1.082       .  S
C1574      H1586   1.084       .  S
C1575      C1576   1.349       .  D
C1575      H1587   1.086       .  S
C1576      C1577   1.487       .  S
C1576      H1588   1.086       .  S
C1577      C1578   1.403       .  A
C1577      C1582   1.407       .  A
C1578      C1579   1.399       .  A
C1578      H1589   1.084       .  S
C1579      C1580   1.407       .  A
C1579      H1590   1.083       .  S
C1580      C1581   1.407       .  A
C1581      C1582   1.402       .  A
C1581      H1591   1.083       .  S
C1582      H1592   1.082       .  S
C1593      C1594   1.404       .  A
C1593      C1598   1.405       .  A
C1594      C1595   1.406       .  A
C1594      H1607   1.083       .  S
C1595      C1596   1.408       .  A
C1595      H1608   1.083       .  S
C1596      C1597   1.406       .  A
C1596      C1599   1.493       .  S
C1597      C1598   1.397       .  A
C1597      H1609   1.082       .  S
C1598      H1610   1.083       .  S
C1599      C1600   1.349       .  D
C1599      H1611   1.086       .  S
C1600      C1601   1.490       .  S
C1600      H1612   1.086       .  S
C1601      C1602   1.403       .  A
C1601      C1606   1.408       .  A
C1602      C1603   1.399       .  A
C1602      H1613   1.083       .  S
C1603      C1604   1.407       .  A
C1603      H1614   1.083       .  S
C1604      C1605   1.408       .  A
C1605      C1606   1.404       .  A
C1605      H1615   1.083       .  S
C1606      H1616   1.082       .  S
C1617      C1618   1.405       .  A
C1617      C1622   1.407       .  A
C1618      C1619   1.401       .  A
C1618      H1631   1.083       .  S
C1619      C1620   1.404       .  A
C1619      H1632   1.083       .  S
C1620      C1621   1.407       .  A
C1620      C1623   1.489       .  S
C1621      C1622   1.401       .  A
C1621      H1633   1.082       .  S
C1622      H1634   1.083       .  S
C1623      C1624   1.350       .  D
C1623      H1635   1.086       .  S
C1624      C1625   1.491       .  S
C1624      H1636   1.086       .  S
C1625      C1626   1.408       .  A
C1625      C1630   1.406       .  A
C1626      C1627   1.407       .  A
C1626      H1637   1.083       .  S
C1627      C1628   1.404       .  A
C1627      H1638   1.083       .  S
C1628      C1629   1.405       .  A
C1629      C1630   1.395       .  A
C1629      H1639   1.084       .  S
C1630      H1640   1.082       .  S
C1641      C1642   1.406       .  A
C1641      C1646   1.406       .  A
C1642      C1643   1.396       .  A
C1642      H1655   1.083       .  S
C1643      C1644   1.402       .  A
C1643      H1656   1.084       .  S
C1644      C1645   1.408       .  A
C1644      C1647   1.484       .  S
C1645      C1646   1.402       .  A
C1645      H1657   1.082       .  S
C1646      H1658   1.083       .  S
C1647      C1648   1.346       .  D
C1647      H1659   1.087       .  S
C1648      C1649   1.486       .  S
C1648      H1660   1.086       .  S
C1649      C1650   1.406       .  A
C1649      C1654   1.405       .  A
C1650      C1651   1.404       .  A
C1650      H1661   1.083       .  S
C1651      C1652   1.404       .  A
C1651      H1662   1.083       .  S
C1652      C1653   1.404       .  A
C1653      C1654   1.393       .  A
C1653      H1663   1.084       .  S
C1654      H1664   1.083       .  S
C1665      C1666   1.404       .  A
C1665      C1670   1.408       .  A
C1666      C1667   1.392       .  A
C1666      H1679   1.083       .  S
C1667      C1668   1.403       .  A
C1667      H1680   1.084       .  S
C1668      C1669   1.409       .  A
C1668      C1671   1.487       .  S
C1669      C1670   1.405       .  A
C1669      H1681   1.081       .  S
C1670      H1682   1.083       .  S
C1671      C1672   1.349       .  D
C1671      H1683   1.087       .  S
C1672      C1673   1.488       .  S
C1672      H1684   1.084       .  S
C1673      C1674   1.406       .  A
C1673      C1678   1.407       .  A
C1674      C1675   1.405       .  A
C1674      H1685   1.083       .  S
C1675      C1676   1.404       .  A
C1675      H1686   1.083       .  S
C1676      C1677   1.401       .  A
C1677      C1678   1.392       .  A
C1677      H1687   1.084       .  S
C1678      H1688   1.082       .  S
C1689      C1690   1.403       .  A
C1689      C1694   1.410       .  A
C1690      C1691   1.391       .  A
C1690      H1703   1.083       .  S
C1691      C1692   1.402       .  A
C1692      C1693   1.409       .  A
C1692      C1695   1.488       .  S
C1693      C1694   1.408       .  A
C1693      H1705   1.081       .  S
C1694      H1706   1.083       .  S
C1695      C1696   1.350       .  D
C1695      H1707   1.085       .  S
C1696      C1697   1.494       .  S
C1696      H1708   1.085       .  S
C1697      C1698   1.407       .  A
C1697      C1702   1.408       .  A
C1698      C1699   1.407       .  A
C1698      H1709   1.083       .  S
C1699      C1700   1.405       .  A
C1699      H1710   1.083       .  S
C1700      C1701   1.403       .  A
C1701      C1702   1.393       .  A
C1702      H1712   1.082       .  S
C1713      C1714   1.403       .  A
C1713      C1718   1.405       .  A
C1714      C1715   1.394       .  A
C1714      H1727   1.084       .  S
C1715      C1716   1.402       .  A
C1715      H1728   1.084       .  S
C1716      C1717   1.412       .  A
C1716      C1719   1.492       .  S
C1717      C1718   1.409       .  A
C1717      H1729   1.082       .  S
C1718      H1730   1.083       .  S
C1719      C1720   1.350       .  D
C1719      H1731   1.085       .  S
C1720      C1721   1.496       .  S
C1720      H1732   1.085       .  S
C1721      C1722   1.405       .  A
C1721      C1726   1.410       .  A
C1722      C1723   1.403       .  A
C1722      H1733   1.083       .  S
C1723      C1724   1.408       .  A
C1723      H1734   1.083       .  S
C1724      C1725   1.406       .  A
C1725      C1726   1.400       .  A
C1725      H1735   1.083       .  S
C1726      H1736   1.081       .  S
C1737      C1738   1.404       .  A
C1737      C1742   1.404       .  A
C1738      C1739   1.397       .  A
C1738      H1751   1.083       .  S
C1739      C1740   1.403       .  A
C1739      H1752   1.084       .  S
C1740      C1741   1.411       .  A
C1740      C1743   1.492       .  S
C1741      C1742   1.407       .  A
C1741      H1753   1.082       .  S
C1742      H1754   1.083       .  S
C1743      C1744   1.350       .  D
C1743      H1755   1.085       .  S
C1744      C1745   1.496       .  S
C1744      H1756   1.085       .  S
C1745      C1746   1.405       .  A
C1745      C1750   1.410       .  A
C1746      C1747   1.401       .  A
C1746      H1757   1.083       .  S
C1747      C1748   1.407       .  A
C1747      H1758   1.083       .  S
C1748      C1749   1.407       .  A
C1749      C1750   1.402       .  A
C1749      H1759   1.083       .  S
C1750      H1760   1.081       .  S
C1761      C1762   1.404       .  A
C1761      C1766   1.407       .  A
C1762      C1763   1.396       .  A
C1762      H1775   1.083       .  S
C1763      C1764   1.404       .  A
C1763      H1776   1.084       .  S
C1764      C1765   1.410       .  A
C1764      C1767   1.490       .  S
C1765      C1766   1.403       .  A
C1765      H1777   1.080       .  S
C1766      H1778   1.083       .  S
C1767      C1768   1.350       .  D
C1767      H1779   1.086       .  S
C1768      C1769   1.491       .  S
C1768      H1780   1.084       .  S
C1769      C1770   1.408       .  A
C1769      C1774   1.406       .  A
C1770      C1771   1.406       .  A
C1770      H1781   1.083       .  S
C1771      C1772   1.404       .  A
C1771      H1782   1.083       .  S
C1772      C1773   1.404       .  A
C1773      C1774   1.391       .  A
C1773      H1783   1.084       .  S
C1774      H1784   1.081       .  S
C1785      C1786   1.404       .  A
C1785      C1790   1.406       .  A
C1786      C1787   1.392       .  A
C1786      H1799   1.084       .  S
C1787      C1788   1.401       .  A
C1787      H1800   1.083       .  S
C1788      C1789   1.412       .  A
C1788      C1791   1.490       .  S
C1789      C1790   1.411       .  A
C1789      H1801   1.082       .  S
C1790      H1802   1.083       .  S
C1791      C1792   1.347       .  D
C1791      H1803   1.087       .  S
C1792      C1793   1.491       .  S
C1792      H1804   1.085       .  S
C1793      C1794   1.404       .  A
C1793      C1798   1.408       .  A
C1794      C1795   1.403       .  A
C1794      H1805   1.083       .  S
C1795      C1796   1.407       .  A
C1795      H1806   1.083       .  S
C1796      C1797   1.405       .  A
C1797      C1798   1.400       .  A
C1797      H1807   1.083       .  S
C1798      H1808   1.083       .  S
C1809      C1810   1.408       .  A
C1809      C1814   1.407       .  A
C1810      C1811   1.399       .  A
C1810      H1823   1.083       .  S
C1811      C1812   1.402       .  A
C1811      H1824   1.083       .  S
C1812      C1813   1.408       .  A
C1812      C1815   1.490       .  S
C1813      C1814   1.405       .  A
C1813      H1825   1.082       .  S
C1814      H1826   1.083       .  S
C1815      C1816   1.349       .  D
C1815      H1827   1.086       .  S
C1816      C1817   1.493       .  S
C1816      H1828   1.086       .  S
C1817      C1818   1.408       .  A
C1817      C1822   1.406       .  A
C1818      C1819   1.406       .  A
C1818      H1829   1.083       .  S
C1819      C1820   1.403       .  A
C1819      H1830   1.083       .  S
C1820      C1821   1.406       .  A
C1821      C1822   1.397       .  A
C1821      H1831   1.084       .  S
C1822      H1832   1.082       .  S
C1833      C1834   1.407       .  A
C1833      C1838   1.407       .  A
C1834      C1835   1.398       .  A
C1834      H1847   1.083       .  S
C1835      C1836   1.403       .  A
C1835      H1848   1.084       .  S
C1836      C1837   1.409       .  A
C1836      C1839   1.491       .  S
C1837      C1838   1.403       .  A
C1837      H1849   1.082       .  S
C1838      H1850   1.083       .  S
C1839      C1840   1.347       .  D
C1839      H1851   1.087       .  S
C1840      C1841   1.488       .  S
C1840      H1852   1.086       .  S
C1841      C1842   1.402       .  A
C1841      C1846   1.409       .  A
C1842      C1843   1.397       .  A
C1842      H1853   1.084       .  S
C1843      C1844   1.403       .  A
C1843      H1854   1.083       .  S
C1844      C1845   1.403       .  A
C1845      C1846   1.405       .  A
C1845      H1855   1.083       .  S
C1846      H1856   1.082       .  S
C1857      C1858   1.405       .  A
C1857      C1862   1.407       .  A
C1858      C1859   1.394       .  A
C1858      H1871   1.083       .  S
C1859      C1860   1.404       .  A
C1859      H1872   1.084       .  S
C1860      C1861   1.410       .  A
C1860      C1863   1.490       .  S
C1861      C1862   1.404       .  A
C1861      H1873   1.080       .  S
C1862      H1874   1.083       .  S
C1863      C1864   1.351       .  D
C1863      H1875   1.084       .  S
C1864      C1865   1.492       .  S
C1864      H1876   1.083       .  S
C1865      C1866   1.407       .  A
C1865      C1870   1.408       .  A
C1866      C1867   1.404       .  A
C1866      H1877   1.083       .  S
C1867      C1868   1.403       .  A
C1867      H1878   1.083       .  S
C1868      C1869   1.402       .  A
C1869      C1870   1.394       .  A
C1869      H1879   1.083       .  S
C1870      H1880   1.081       .  S
C1881      C1882   1.403       .  A
C1881      C1886   1.403       .  A
C1882      C1883   1.405       .  A
C1882      H1895   1.083       .  S
C1883      C1884   1.409       .  A
C1883      H1896   1.083       .  S
C1884      C1885   1.408       .  A
C1884      C1887   1.496       .  S
C1885      C1886   1.395       .  A
C1885      H1897   1.080       .  S
C1886      H1898   1.084       .  S
C1887      C1888   1.352       .  D
C1887      H1899   1.085       .  S
C1888      C1889   1.491       .  S
C1888      H1900   1.083       .  S
C1889      C1890   1.404       .  A
C1889      C1894   1.408       .  A
C1890      C1891   1.398       .  A
C1890      H1901   1.084       .  S
C1891      C1892   1.406       .  A
C1891      H1902   1.083       .  S
C1892      C1893   1.408       .  A
C1893      C1894   1.403       .  A
C1893      H1903   1.083       .  S
C1894      H1904   1.081       .  S
C1905      C1906   1.404       .  A
C1905      C1910   1.405       .  A
C1906      C1907   1.391       .  A
C1907      C1908   1.400       .  A
C1908      C1909   1.412       .  A
C1908      C1911   1.488       .  S
C1909      C1910   1.410       .  A
C1909      H1921   1.081       .  S
C1910      H1922   1.083       .  S
C1911      C1912   1.346       .  D
C1911      H1923   1.088       .  S
C1912      C1913   1.489       .  S
C1912      H1924   1.086       .  S
C1913      C1914   1.403       .  A
C1913      C1918   1.407       .  A
C1914      C1915   1.403       .  A
C1914      H1925   1.083       .  S
C1915      C1916   1.409       .  A
C1915      H1926   1.083       .  S
C1916      C1917   1.405       .  A
C1917      C1918   1.398       .  A
C1917      H1927   1.083       .  S
C1918      H1928   1.083       .  S
C1929      C1930   1.404       .  A
C1929      C1934   1.405       .  A
C1930      C1931   1.393       .  A
C1931      C1932   1.402       .  A
C1932      C1933   1.412       .  A
C1932      C1935   1.491       .  S
C1933      C1934   1.410       .  A
C1933      H1945   1.082       .  S
C1934      H1946   1.083       .  S
C1935      C1936   1.347       .  D
C1935      H1947   1.087       .  S
C1936      C1937   1.492       .  S
C1936      H1948   1.085       .  S
C1937      C1938   1.404       .  A
C1937      C1942   1.408       .  A
C1938      C1939   1.404       .  A
C1938      H1949   1.083       .  S
C1939      C1940   1.409       .  A
C1939      H1950   1.083       .  S
C1940      C1941   1.405       .  A
C1941      C1942   1.400       .  A
C1942      H1952   1.083       .  S
C1953      C1954   1.407       .  A
C1953      C1958   1.406       .  A
C1954      C1955   1.399       .  A
C1954      H1967   1.083       .  S
C1955      C1956   1.402       .  A
C1955      H1968   1.083       .  S
C1956      C1957   1.407       .  A
C1956      C1959   1.484       .  S
C1957      C1958   1.400       .  A
C1957      H1969   1.083       .  S
C1958      H1970   1.083       .  S
C1959      C1960   1.346       .  D
C1959      H1971   1.086       .  S
C1960      C1961   1.486       .  S
C1960      H1972   1.087       .  S
C1961      C1962   1.406       .  A
C1961      C1966   1.407       .  A
C1962      C1963   1.401       .  A
C1962      H1973   1.083       .  S
C1963      C1964   1.402       .  A
C1963      H1974   1.083       .  S
C1964      C1965   1.403       .  A
C1965      C1966   1.397       .  A
C1965      H1975   1.084       .  S
C1966      H1976   1.082       .  S
C1977      C1978   1.405       .  A
C1977      C1982   1.408       .  A
C1978      C1979   1.395       .  A
C1978      H1991   1.083       .  S
C1979      C1980   1.402       .  A
C1979      H1992   1.084       .  S
C1980      C1981   1.405       .  A
C1980      C1983   1.480       .  S
C1981      C1982   1.401       .  A
C1981      H1993   1.082       .  S
C1982      H1994   1.083       .  S
C1983      C1984   1.347       .  D
C1983      H1995   1.088       .  S
C1984      C1985   1.482       .  S
C1984      H1996   1.086       .  S
C1985      C1986   1.406       .  A
C1985      C1990   1.403       .  A
C1986      C1987   1.405       .  A
C1986      H1997   1.083       .  S
C1987      C1988   1.405       .  A
C1987      H1998   1.083       .  S
C1988      C1989   1.404       .  A
C1989      C1990   1.390       .  A
C1989      H1999   1.084       .  S
C1990      H2000   1.083       .  S
C2001      C2002   1.405       .  A
C2001      C2006   1.408       .  A
C2002      C2003   1.393       .  A
C2002      H2015   1.083       .  S
C2003      C2004   1.402       .  A
C2003      H2016   1.084       .  S
C2004      C2005   1.407       .  A
C2004      C2007   1.484       .  S
C2005      C2006   1.404       .  A
C2005      H2017   1.082       .  S
C2006      H2018   1.083       .  S
C2007      C2008   1.348       .  D
C2007      H2019   1.087       .  S
C2008      C2009   1.487       .  S
C2008      H2020   1.085       .  S
C2009      C2010   1.406       .  A
C2009      C2014   1.404       .  A
C2010      C2011   1.406       .  A
C2010      H2021   1.083       .  S
C2011      C2012   1.406       .  A
C2011      H2022   1.083       .  S
C2012      C2013   1.404       .  A
C2013      C2014   1.392       .  A
C2013      H2023   1.083       .  S
C2014      H2024   1.083       .  S
C2025      C2026   1.405       .  A
C2025      C2030   1.408       .  A
C2026      C2027   1.393       .  A
C2026      H2039   1.083       .  S
C2027      C2028   1.403       .  A
C2027      H2040   1.084       .  S
C2028      C2029   1.409       .  A
C2028      C2031   1.488       .  S
C2029      C2030   1.406       .  A
C2029      H2041   1.081       .  S
C2030      H2042   1.083       .  S
C2031      C2032   1.350       .  D
C2031      H2043   1.086       .  S
C2032      C2033   1.492       .  S
C2032      H2044   1.084       .  S
C2033      C2034   1.408       .  A
C2033      C2038   1.406       .  A
C2034      C2035   1.407       .  A
C2034      H2045   1.083       .  S
C2035      C2036   1.404       .  A
C2035      H2046   1.083       .  S
C2036      C2037   1.403       .  A
C2037      C2038   1.391       .  A
C2037      H2047   1.084       .  S
C2038      H2048   1.082       .  S
C2049      C2050   1.405       .  A
C2049      C2054   1.402       .  A
C2050      C2051   1.408       .  A
C2050      H2063   1.083       .  S
C2051      C2052   1.408       .  A
C2051      H2064   1.083       .  S
C2052      C2053   1.407       .  A
C2052      C2055   1.493       .  S
C2053      C2054   1.393       .  A
C2053      H2065   1.082       .  S
C2054      H2066   1.084       .  S
C2055      C2056   1.352       .  D
C2055      H2067   1.084       .  S
C2056      C2057   1.491       .  S
C2056      H2068   1.086       .  S
C2057      C2058   1.404       .  A
C2057      C2062   1.409       .  A
C2058      C2059   1.394       .  A
C2058      H2069   1.084       .  S
C2059      C2060   1.404       .  A
C2059      H2070   1.083       .  S
C2060      C2061   1.409       .  A
C2061      C2062   1.406       .  A
C2061      H2071   1.083       .  S
C2062      H2072   1.081       .  S
C2073      C2074   1.404       .  A
C2073      C2078   1.405       .  A
C2074      C2075   1.404       .  A
C2074      H2087   1.083       .  S
C2075      C2076   1.406       .  A
C2075      H2088   1.083       .  S
C2076      C2077   1.405       .  A
C2076      C2079   1.485       .  S
C2077      C2078   1.395       .  A
C2077      H2089   1.083       .  S
C2078      H2090   1.083       .  S
C2079      C2080   1.347       .  D
C2079      H2091   1.086       .  S
C2080      C2081   1.483       .  S
C2080      H2092   1.086       .  S
C2081      C2082   1.403       .  A
C2081      C2086   1.406       .  A
C2082      C2083   1.400       .  A
C2082      H2093   1.083       .  S
C2083      C2084   1.406       .  A
C2083      H2094   1.083       .  S
C2084      C2085   1.406       .  A
C2085      C2086   1.399       .  A
C2085      H2095   1.083       .  S
C2086      H2096   1.083       .  S
