geometry optimzed in LAMMPS
_audit_creation_date              2020-11-30 
_audit_creation_method            'lammps2cif' 
_symmetry_space_group_name_H-M    'P1' 
_symmetry_Int_Tables_number       1 
_symmetry_cell_setting            triclinic 
loop_ 
_symmetry_equiv_pos_as_xyz 
  x,y,z 
_cell_length_a                    38.90228240966275 
_cell_length_b                    38.86195596077035 
_cell_length_c                    26.18460515077853 
_cell_angle_alpha                 91.34845456443963 
_cell_angle_beta                  90.10446200069383 
_cell_angle_gamma                 119.96007727115452 
loop_ 
_atom_site_label 
_atom_site_type_symbol 
_atom_site_fract_x 
_atom_site_fract_y 
_atom_site_fract_z 
_atom_site_charge 
O1          O  0.03309173  0.26734978  0.06272322    -0.74370
O2          O  0.03262878  0.26507563  0.41647507    -0.74400
O3          O  0.03307866  0.31548475  0.99043173    -0.74450
O4          O  0.03266895  0.21676307  0.48953679    -0.74500
O5          O  0.46643610  0.18392726  0.99173244    -0.74430
O6          O  0.46688855  0.28254206  0.48618957    -0.74410
O7          O  0.46641831  0.23057466  0.41538007    -0.74390
O8          O  0.46686614  0.23612751  0.06157742    -0.74450
Ni9        Ni  0.03522689  0.26733904  0.98970596     1.25410
Ni10       Ni  0.46428249  0.23206068  0.48856247     1.25360
C11         C  0.50002791  0.25232960  0.08608706     0.87810
C12         C  0.49946399  0.24762337  0.39187835     0.87750
C13         C  0.00003114  0.31515468  0.98871375     0.87770
C14         C  0.99952758  0.18426949  0.99190324     0.87940
O15         O  0.03307493  0.26888908  0.16666190    -0.74370
O16         O  0.03258138  0.26409742  0.31253112    -0.74400
O17         O  0.03121402  0.21669950  0.23359772    -0.74450
O18         O  0.03446387  0.31649807  0.24484060    -0.74500
O19         O  0.46824451  0.28493813  0.24146781    -0.74430
O20         O  0.46512462  0.18469526  0.23259383    -0.74410
O21         O  0.46640288  0.23289113  0.31099632    -0.74390
O22         O  0.46682659  0.23650938  0.16499489    -0.74450
Ni23       Ni  0.03517060  0.26766750  0.23962499     1.25410
Ni24       Ni  0.46426078  0.23364879  0.23772385     1.25360
C25         C  0.50001375  0.25286869  0.14191012     0.87810
C26         C  0.49943417  0.24798124  0.33578848     0.87750
C27         C  0.99781664  0.18433198  0.22940568     0.87770
C28         C  0.00189523  0.31711933  0.24387164     0.87940
C29         C  0.49980503  0.46321852  0.99958171     0.02350
C30         C  0.46356702  0.46351540  0.00101362     0.02350
C31         C  0.46392474  0.50017250  0.00134908     0.02470
C32         C  0.50058972  0.03648044  0.00153099     0.02350
C33         C  0.03683646  0.03603752  0.00214426     0.02350
C34         C  0.03635870  0.49941084  0.00075810     0.02350
C35         C  0.50061916  0.46476648  0.25388130     0.02350
C36         C  0.46405895  0.46464588  0.26250408     0.02350
C37         C  0.46377495  0.00054011  0.24785903     0.02350
C38         C  0.99969135  0.03640552  0.23250753     0.02350
C39         C  0.03634372  0.03657980  0.24077281     0.02350
C40         C  0.03634335  0.00068924  0.24758017     0.02350
O41         O  0.26771794  0.03380875  0.07411285    -0.74370
O42         O  0.26566001  0.03314060  0.42795085    -0.74400
O43         O  0.21719450  0.03295929  0.00258597    -0.74450
O44         O  0.31628981  0.03401026  0.49944896    -0.74500
O45         O  0.28354469  0.46771545  0.00045094    -0.74430
O46         O  0.18466579  0.46664379  0.49755951    -0.74410
O47         O  0.23463231  0.46684825  0.42583747    -0.74390
O48         O  0.23350210  0.46749183  0.07197651    -0.74450
Ni49       Ni  0.26785671  0.03586261  0.00106997     1.25410
Ni50       Ni  0.23298746  0.46479677  0.49887108     1.25360
C51         C  0.25055852  0.50071442  0.09701838     0.87810
C52         C  0.25002753  0.49992265  0.40291931     0.87750
C53         C  0.18479173  0.99964441  0.50026562     0.87770
C54         C  0.31615167  0.00100386  0.50006557     0.87940
O55         O  0.26624736  0.03316483  0.32448958    -0.74370
O56         O  0.26675595  0.03375611  0.17837905    -0.74400
O57         O  0.21711205  0.03325488  0.25160798    -0.74450
O58         O  0.31581356  0.03360020  0.25211972    -0.74500
O59         O  0.28281872  0.46728792  0.24814354    -0.74430
O60         O  0.18418017  0.46690478  0.24793257    -0.74410
O61         O  0.23367962  0.46742837  0.17543640    -0.74390
O62         O  0.23344246  0.46683434  0.32157307    -0.74450
Ni63       Ni  0.26764933  0.03581906  0.25168634     1.25410
Ni64       Ni  0.23234507  0.46474588  0.24826185     1.25360
C65         C  0.24985366  0.99991773  0.34699863     0.87810
C66         C  0.25036341  0.00068343  0.15294100     0.87750
C67         C  0.18450717  0.00001813  0.24963681     0.87770
C68         C  0.31549147  0.00047040  0.25000566     0.87940
O69         O  0.26743523  0.23168170  0.43815625    -0.74370
O70         O  0.26867102  0.23343037  0.08442049    -0.74400
O71         O  0.21914404  0.18307333  0.51007167    -0.74450
O72         O  0.31704395  0.28209668  0.01201333    -0.74500
O73         O  0.28341072  0.31468795  0.50957111    -0.74430
O74         O  0.18554010  0.21578503  0.01413196    -0.74410
O75         O  0.23670496  0.26775695  0.08524437    -0.74390
O76         O  0.23213963  0.26266115  0.43907399    -0.74450
Ni77       Ni  0.26926574  0.23138333  0.01122321     1.25410
Ni78       Ni  0.23322019  0.26638282  0.01210540     1.25360
C79         C  0.24939110  0.24674521  0.41466133     0.87810
C80         C  0.25294400  0.25091582  0.10886286     0.87750
C81         C  0.18628179  0.18321924  0.01179041     0.87770
C82         C  0.31619280  0.31456215  0.01004248     0.87940
O83         O  0.23542046  0.26655032  0.18958127    -0.74370
O84         O  0.23256501  0.26324945  0.33562953    -0.74400
O85         O  0.28266035  0.31474312  0.26772778    -0.74450
O86         O  0.18529688  0.21513364  0.25907879    -0.74500
O87         O  0.21934416  0.18287479  0.25599373    -0.74430
O88         O  0.31625870  0.28218960  0.26677650    -0.74410
O89         O  0.26598653  0.23035344  0.33412695    -0.74390
O90         O  0.26983438  0.23469123  0.18827563    -0.74450
Ni91       Ni  0.23274448  0.26606240  0.26284714     1.25410
Ni92       Ni  0.26907648  0.23139790  0.26114867     1.25360
C93         C  0.25290857  0.25094374  0.16491418     0.87810
C94         C  0.24910128  0.24653719  0.35880707     0.87750
C95         C  0.31557291  0.31478351  0.27044350     0.87770
C96         C  0.18637883  0.18273395  0.25646963     0.87940
C97         C  0.11933402  0.13670328  0.28960948    -0.21250
C98         C  0.14904358  0.14467974  0.25383484    -0.09290
C99         C  0.14251860  0.11647997  0.21502046     0.29570
C100        C  0.10597956  0.08143097  0.21080259    -0.21250
C101        C  0.07563047  0.07367032  0.24593115    -0.09300
C102        C  0.08315045  0.10106079  0.28636315     0.29580
F103        F  0.05478751  0.09390990  0.32121827    -0.19820
H104        H  0.12425077  0.15808014  0.32009698     0.17940
H105        H  0.10068118  0.06101299  0.17895711     0.17950
F106        F  0.17068143  0.12380085  0.17965582    -0.19810
C107        C  0.42476633  0.38953417  0.28765283    -0.21250
C108        C  0.42633559  0.42644001  0.28187561    -0.09290
C109        C  0.38996691  0.42419935  0.29565740     0.29570
C110        C  0.35372756  0.38844827  0.28953819    -0.21250
C111        C  0.35332677  0.35275545  0.27855900    -0.09300
C112        C  0.38953135  0.35339771  0.28226208     0.29580
F113        F  0.39124401  0.31935087  0.28295426    -0.19820
H114        H  0.44945650  0.38705349  0.30014562     0.17940
H115        H  0.32628128  0.38842232  0.29650407     0.17950
F116        F  0.38939468  0.45353140  0.32368839    -0.19810
C117        C  0.13672740  0.01627283  0.29088306    -0.21250
C118        C  0.14673508  0.99989395  0.24918410    -0.09290
C119        C  0.12052729  0.48353220  0.20717381     0.29570
C120        C  0.08514995  0.48457851  0.20636257    -0.21250
C121        C  0.07477862  0.00054293  0.24834289    -0.09300
C122        C  0.10063267  0.01593322  0.29098422     0.29580
F123        F  0.09088961  0.03065961  0.33248881    -0.19820
H124        H  0.15656758  0.02863287  0.32372561     0.17940
H125        H  0.06557761  0.47265905  0.17322205     0.17950
F126        F  0.12957661  0.46729611  0.16660268    -0.19810
C127        C  0.39523769  0.47637504  0.21352123    -0.21250
C128        C  0.42576248  0.00056050  0.24864424    -0.09290
C129        C  0.41994513  0.02525990  0.28374076     0.29570
C130        C  0.38420908  0.02568199  0.28331875    -0.21250
C131        C  0.35333471  0.00050672  0.24941057    -0.09300
C132        C  0.35889461  0.47549509  0.21492726     0.29580
F133        F  0.32930027  0.45056685  0.18224257    -0.19820
H134        H  0.39937107  0.45750726  0.18606144     0.17940
H135        H  0.38032783  0.04507289  0.31015048     0.17950
F136        F  0.44920257  0.04938999  0.31735113    -0.19810
C137        C  0.10317426  0.08355119  0.46541923    -0.21250
C138        C  0.07550202  0.07401449  0.00472162    -0.09290
C139        C  0.08501067  0.10041139  0.04682910     0.29570
C140        C  0.12107601  0.13621108  0.04896580    -0.21250
C141        C  0.14869793  0.14537276  0.00992835    -0.09300
C142        C  0.13980136  0.11866580  0.46836342     0.29580
F143        F  0.16598891  0.12714275  0.42992889    -0.19820
H144        H  0.09623581  0.06373040  0.43243800     0.17940
H145        H  0.12775197  0.15648803  0.08141902     0.17950
F146        F  0.05932989  0.09121446  0.08584278    -0.19810
C147        C  0.36075826  0.37744145  0.96664338    -0.21250
C148        C  0.35364001  0.35245588  0.00787864    -0.09290
C149        C  0.38270847  0.36376901  0.54650963     0.29570
C150        C  0.41793313  0.40024432  0.54456612    -0.21250
C151        C  0.42527915  0.42521866  0.00312610    -0.09300
C152        C  0.39666223  0.41319451  0.96367173     0.29580
F153        F  0.40386854  0.43561558  0.92186059    -0.19820
H154        H  0.33890179  0.36871854  0.93610678     0.17940
H155        H  0.43965098  0.40898277  0.57521815     0.17950
F156        F  0.37650913  0.33989107  0.58657596    -0.19810
C157        C  0.12157980  0.98478703  0.45781048    -0.21250
C158        C  0.14691624  0.99926415  0.50073746    -0.09290
C159        C  0.13582703  0.51351815  0.04380465     0.29570
C160        C  0.09960704  0.51292654  0.04398678    -0.21250
C161        C  0.07442976  0.99894266  0.00075581    -0.09300
C162        C  0.08582004  0.98509996  0.45748305     0.29580
F163        F  0.06252390  0.97252017  0.41475588    -0.19820
H164        H  0.12992471  0.97402574  0.42420227     0.17940
H165        H  0.09122608  0.52356685  0.07767575     0.17950
F166        F  0.15986938  0.52737391  0.08585431    -0.19810
C167        C  0.40045646  0.48652134  0.04294176    -0.21250
C168        C  0.42586958  0.00057097  0.00102041    -0.09290
C169        C  0.41500143  0.01501791  0.45888910     0.29570
C170        C  0.37950151  0.01585635  0.45909688    -0.21250
C171        C  0.35399084  0.00125591  0.50067343    -0.09300
C172        C  0.36447473  0.48641969  0.04250982     0.29580
F173        F  0.34025995  0.47254236  0.08322079    -0.19820
H174        H  0.40855209  0.47555213  0.07585216     0.17940
H175        H  0.37146465  0.02704808  0.42635840     0.17950
F176        F  0.43840814  0.02761237  0.41729847    -0.19810
C177        C  0.03358380  0.14692625  0.21464486    -0.21250
C178        C  0.99761465  0.14646902  0.21971952    -0.09290
C179        C  0.46275115  0.11045363  0.20809479     0.29570
C180        C  0.46447785  0.07540248  0.20094193    -0.21250
C181        C  0.99942517  0.07419396  0.21283745    -0.09300
C182        C  0.03404549  0.11159860  0.20633594     0.29580
F183        F  0.06514872  0.11500161  0.17974029    -0.19820
H184        H  0.06132591  0.17478021  0.21309739     0.17940
H185        H  0.43812445  0.04978844  0.18620921     0.17950
F186        F  0.42736543  0.10900304  0.20236084    -0.19810
C187        C  0.02277348  0.41889616  0.28766108    -0.21250
C188        C  0.50330222  0.42793955  0.24927790    -0.09290
C189        C  0.48555454  0.40129714  0.20746833     0.29570
C190        C  0.48488181  0.36495425  0.20606087    -0.21250
C191        C  0.00327241  0.35555995  0.24520440    -0.09300
C192        C  0.02305271  0.38311883  0.28539436     0.29580
F193        F  0.04094069  0.37455473  0.32365453    -0.19820
H194        H  0.03636744  0.43894027  0.32026751     0.17940
H195        H  0.47009736  0.34414505  0.17441474     0.17950
F196        F  0.46739341  0.40977123  0.16950182    -0.19810
C197        C  0.48328540  0.08611655  0.03886806    -0.21250
C198        C  0.00094980  0.07503884  0.99989476    -0.09290
C199        C  0.01818178  0.10030224  0.45860493     0.29570
C200        C  0.01815492  0.13614633  0.45670707    -0.21250
C201        C  0.99966440  0.14667147  0.99492344    -0.09300
C202        C  0.48201519  0.12136442  0.03602829     0.29580
F203        F  0.46445515  0.13121595  0.07391549    -0.19820
H204        H  0.47025938  0.06727112  0.07128377     0.17940
H205        H  0.03171140  0.15532181  0.42470262     0.17950
F206        F  0.03421710  0.08982799  0.41958119    -0.19810
C207        C  0.48289075  0.36292685  0.45150385    -0.21250
C208        C  0.00020080  0.35291645  0.99109532    -0.09290
C209        C  0.01730612  0.37893003  0.03348405     0.29570
C210        C  0.01634480  0.41433324  0.03659296    -0.21250
C211        C  0.49955604  0.42482277  0.99663539    -0.09300
C212        C  0.48318961  0.39902872  0.45373677     0.29580
F213        F  0.46798863  0.40909180  0.41382373    -0.19820
H214        H  0.46986218  0.34316426  0.41845773     0.17940
H215        H  0.02885434  0.43373124  0.07005103     0.17950
F216        F  0.03400980  0.36954954  0.07237448    -0.19810
O217        O  0.03312517  0.26731154  0.56272362    -0.74370
O218        O  0.03259514  0.26511202  0.91647997    -0.74400
O219        O  0.03313277  0.31545256  0.49042954    -0.74450
O220        O  0.03264595  0.21680388  0.98954073    -0.74500
O221        O  0.46646100  0.18390544  0.49172855    -0.74430
O222        O  0.46683239  0.28254667  0.98619015    -0.74410
O223        O  0.46638308  0.23058770  0.91537949    -0.74390
O224        O  0.46690156  0.23611195  0.56157255    -0.74450
Ni225      Ni  0.03526296  0.26730086  0.48970356     1.25410
Ni226      Ni  0.46424472  0.23207444  0.98856455     1.25360
C227        C  0.50006125  0.25230859  0.58608513     0.87810
C228        C  0.49943033  0.24763965  0.89188016     0.87750
C229        C  0.00009163  0.31513366  0.48871050     0.87770
C230        C  0.99954760  0.18423329  0.49189836     0.87940
O231        O  0.03309365  0.26887417  0.66667122    -0.74370
O232        O  0.03256307  0.26410566  0.81254382    -0.74400
O233        O  0.03121596  0.21669581  0.73363654    -0.74450
O234        O  0.03446209  0.31649441  0.74482501    -0.74500
O235        O  0.46824283  0.28493262  0.74143490    -0.74430
O236        O  0.46512530  0.18468935  0.73260123    -0.74410
O237        O  0.46638303  0.23289175  0.81098491    -0.74390
O238        O  0.46684574  0.23649843  0.66498148    -0.74450
Ni239      Ni  0.03517067  0.26766398  0.73963735     1.25410
Ni240      Ni  0.46426032  0.23364327  0.73770997     1.25360
C241        C  0.50003814  0.25285382  0.64190831     0.87810
C242        C  0.49940914  0.24798735  0.83578963     0.87750
C243        C  0.99781961  0.18432789  0.72943593     0.87770
C244        C  0.00189339  0.31711527  0.74384141     0.87940
C245        C  0.49992907  0.46323314  0.49956878     0.02350
C246        C  0.46368670  0.46352125  0.50099848     0.02350
C247        C  0.46403761  0.50017454  0.50134555     0.02470
C248        C  0.50066007  0.03648229  0.50155020     0.02350
C249        C  0.03691491  0.03604664  0.50215428     0.02350
C250        C  0.03647284  0.49941605  0.50075504     0.02350
C251        C  0.50061711  0.46476226  0.75387287     0.02350
C252        C  0.46405922  0.46464361  0.76251133     0.02350
C253        C  0.46378964  0.00053757  0.74787139     0.02350
C254        C  0.99970591  0.03640369  0.73250568     0.02350
C255        C  0.03635772  0.03657618  0.74076183     0.02350
C256        C  0.03635671  0.00068499  0.74756385     0.02350
O257        O  0.26780148  0.03381585  0.57411413    -0.74370
O258        O  0.26558499  0.03313325  0.92794997    -0.74400
O259        O  0.21728078  0.03297321  0.50259242    -0.74450
O260        O  0.31621123  0.03400810  0.99945306    -0.74500
O261        O  0.28365094  0.46770774  0.50045267    -0.74430
O262        O  0.18455070  0.46663327  0.99755969    -0.74410
O263        O  0.23452525  0.46684742  0.92583666    -0.74390
O264        O  0.23360839  0.46749362  0.57197686    -0.74450
Ni265      Ni  0.26793887  0.03587034  0.50107106     1.25410
Ni266      Ni  0.23287759  0.46479542  0.99887026     1.25360
C267        C  0.25065822  0.50071628  0.59701871     0.87810
C268        C  0.24992702  0.49992201  0.90291827     0.87750
C269        C  0.18470687  0.99962869  0.00025869     0.87770
C270        C  0.31607667  0.00100335  0.00007066     0.87940
O271        O  0.26622926  0.03316132  0.82449067    -0.74370
O272        O  0.26680340  0.03376036  0.67838084    -0.74400
O273        O  0.21712793  0.03325596  0.75156784    -0.74450
O274        O  0.31582887  0.03359987  0.75216175    -0.74500
O275        O  0.28281798  0.46728869  0.74820162    -0.74430
O276        O  0.18418029  0.46690716  0.74787058    -0.74410
O277        O  0.23372463  0.46743033  0.67543546    -0.74390
O278        O  0.23339609  0.46683503  0.82157134    -0.74450
Ni279      Ni  0.26766477  0.03581947  0.75168786     1.25410
Ni280      Ni  0.23234457  0.46474735  0.74826029     1.25360
C281        C  0.24982033  0.99991311  0.84699746     0.87810
C282        C  0.25042109  0.00068868  0.65294083     0.87750
C283        C  0.18452278  0.00001962  0.74958699     0.87770
C284        C  0.31550606  0.00046964  0.75005085     0.87940
O285        O  0.26737621  0.23165120  0.93815794    -0.74370
O286        O  0.26873322  0.23346076  0.58442340    -0.74400
O287        O  0.21908681  0.18303546  0.01007030    -0.74450
O288        O  0.31711620  0.28211921  0.51201205    -0.74500
O289        O  0.28332093  0.31464802  0.00957100    -0.74430
O290        O  0.18560813  0.21583343  0.51413601    -0.74410
O291        O  0.23678178  0.26780155  0.58524516    -0.74390
O292        O  0.23206720  0.26261668  0.93906823    -0.74450
Ni293      Ni  0.26932848  0.23141388  0.51122366     1.25410
Ni294      Ni  0.23329832  0.26642854  0.51210842     1.25360
C295        C  0.24933178  0.24671213  0.91465921     0.87810
C296        C  0.25300821  0.25094913  0.60886475     0.87750
C297        C  0.18634213  0.18326297  0.51179202     0.87770
C298        C  0.31627793  0.31459106  0.51003973     0.87940
O299        O  0.23545559  0.26656561  0.68957250    -0.74370
O300        O  0.23253873  0.26323658  0.83561759    -0.74400
O301        O  0.28266503  0.31474333  0.76774632    -0.74450
O302        O  0.18530234  0.21513496  0.75903887    -0.74500
O303        O  0.21935042  0.18287637  0.75597600    -0.74430
O304        O  0.31626207  0.28218848  0.76681444    -0.74410
O305        O  0.26596077  0.23034102  0.83413551    -0.74390
O306        O  0.26986776  0.23470468  0.68828675    -0.74450
Ni307      Ni  0.23274932  0.26606356  0.76283555     1.25410
Ni308      Ni  0.26908081  0.23139838  0.76115966     1.25360
C309        C  0.25295340  0.25096443  0.66491575     0.87810
C310        C  0.24906369  0.24651765  0.85880506     0.87750
C311        C  0.31557667  0.31478262  0.77047599     0.87770
C312        C  0.18638520  0.18273554  0.75643650     0.87940
C313        C  0.11934966  0.13669893  0.78959094    -0.21250
C314        C  0.14905153  0.14468098  0.75380237    -0.09290
C315        C  0.14252418  0.11648249  0.71498528     0.29570
C316        C  0.10598750  0.08142999  0.71077581    -0.21250
C317        C  0.07564444  0.07366578  0.74591575    -0.09300
C318        C  0.08316953  0.10105297  0.78635384     0.29580
F319        F  0.05481444  0.09389557  0.82122422    -0.19820
H320        H  0.12427034  0.15807365  0.82008307     0.17940
H321        H  0.10068559  0.06101268  0.67892827     0.17950
F322        F  0.17068214  0.12380740  0.67961175    -0.19810
C323        C  0.42477145  0.38953447  0.78767237    -0.21250
C324        C  0.42633878  0.42643921  0.78189254    -0.09290
C325        C  0.38997105  0.42419858  0.79568075     0.29570
C326        C  0.35373163  0.38844697  0.78956984    -0.21250
C327        C  0.35333054  0.35275396  0.77859388    -0.09300
C328        C  0.38953591  0.35339711  0.78229131     0.29580
F329        F  0.39124926  0.31935064  0.78298233    -0.19820
H330        H  0.44946488  0.38705616  0.80015702     0.17940
H331        H  0.32628574  0.38842115  0.79653870     0.17950
F332        F  0.38940030  0.45353149  0.82371091    -0.19810
C333        C  0.13674663  0.01627272  0.79083985    -0.21250
C334        C  0.14675148  0.99989655  0.74913531    -0.09290
C335        C  0.12052097  0.48353273  0.70711415     0.29570
C336        C  0.08514096  0.48457491  0.70631899    -0.21250
C337        C  0.07479165  0.00053832  0.74831566    -0.09300
C338        C  0.10065045  0.01592921  0.79095208     0.29580
F339        F  0.09091044  0.03065194  0.83246327    -0.19820
H340        H  0.15659001  0.02863262  0.82367949     0.17940
H341        H  0.06556175  0.47265327  0.67318504     0.17950
F342        F  0.12956302  0.46729503  0.66653806    -0.19810
C343        C  0.39523216  0.47637728  0.71355586    -0.21250
C344        C  0.42577767  0.00055951  0.74866571    -0.09290
C345        C  0.41996453  0.02525922  0.78376698     0.29570
C346        C  0.38422721  0.02567960  0.78335722    -0.21250
C347        C  0.35334877  0.00050423  0.74945397    -0.09300
C348        C  0.35888982  0.47549795  0.71497628     0.29580
F349        F  0.32929355  0.45057824  0.68228772    -0.19820
H350        H  0.39936131  0.45751148  0.68608801     0.17940
H351        H  0.38034899  0.04507038  0.81019260     0.17950
F352        F  0.44922732  0.04939108  0.81737008    -0.19810
C353        C  0.10309838  0.08352521  0.96540718    -0.21250
C354        C  0.07557660  0.07403187  0.50473399    -0.09290
C355        C  0.08507632  0.10043420  0.54683493     0.29570
C356        C  0.12113265  0.13624547  0.54896418    -0.21250
C357        C  0.14875568  0.14541536  0.50992590    -0.09300
C358        C  0.13973482  0.11862774  0.96835911     0.29580
F359        F  0.16592144  0.12709937  0.92992469    -0.19820
H360        H  0.09615214  0.06370655  0.93242196     0.17940
H361        H  0.12780232  0.15652333  0.58141477     0.17950
F362        F  0.05939646  0.09123134  0.58585071    -0.19810
C363        C  0.36086717  0.37746001  0.46662627    -0.21250
C364        C  0.35373622  0.35247749  0.50786919    -0.09290
C365        C  0.38260815  0.36375760  0.04652567     0.29570
C366        C  0.41782108  0.40024303  0.04459048    -0.21250
C367        C  0.42539918  0.42522062  0.50310069    -0.09300
C368        C  0.39678265  0.41320197  0.46364615     0.29580
F369        F  0.40399852  0.43562001  0.42182947    -0.19820
H370        H  0.33901086  0.36874330  0.43609078     0.17940
H371        H  0.43953854  0.40898749  0.07524453     0.17950
F372        F  0.37641624  0.33987871  0.08658867    -0.19810
C373        C  0.12149029  0.98476738  0.95780621    -0.21250
C374        C  0.14682801  0.99924402  0.00073268    -0.09290
C375        C  0.13595114  0.51353996  0.54379826     0.29570
C376        C  0.09972924  0.51294542  0.54398050    -0.21250
C377        C  0.07451933  0.99896283  0.50075729    -0.09300
C378        C  0.08572978  0.98507998  0.95748065     0.29580
F379        F  0.06243349  0.97250250  0.91475350    -0.19820
H380        H  0.12983529  0.97400789  0.92419642     0.17940
H381        H  0.09134805  0.52358594  0.57766900     0.17950
F382        F  0.15999521  0.52739937  0.58584632    -0.19810
C383        C  0.40056646  0.48650976  0.54293613    -0.21250
C384        C  0.42594175  0.00057032  0.50101914    -0.09290
C385        C  0.41493063  0.01502460  0.95889506     0.29570
C386        C  0.37943105  0.01586421  0.95910500    -0.21250
C387        C  0.35391805  0.00125842  0.00067858    -0.09300
C388        C  0.36458277  0.48640351  0.54250560     0.29580
F389        F  0.34036934  0.47252275  0.58321757    -0.19820
H390        H  0.40866461  0.47554182  0.57584562     0.17940
H391        H  0.37139574  0.02706001  0.92636937     0.17950
F392        F  0.43833777  0.02762286  0.91730544    -0.19810
C393        C  0.03359185  0.14692675  0.71468065    -0.21250
C394        C  0.99762070  0.14646593  0.71975274    -0.09290
C395        C  0.46275760  0.11044750  0.70811781     0.29570
C396        C  0.46448789  0.07539847  0.70095970    -0.21250
C397        C  0.99943827  0.07419459  0.71284703    -0.09300
C398        C  0.03405713  0.11160223  0.70635773     0.29580
F399        F  0.06515912  0.11501331  0.67975120    -0.19820
H400        H  0.06133289  0.17478230  0.71313950     0.17940
H401        H  0.43813595  0.04978382  0.68622477     0.17950
F402        F  0.42737060  0.10899403  0.70238320    -0.19810
C403        C  0.02277810  0.41889316  0.78763450    -0.21250
C404        C  0.50329819  0.42793424  0.74926436    -0.09290
C405        C  0.48554099  0.40128903  0.70745974     0.29570
C406        C  0.48486945  0.36494653  0.70604717    -0.21250
C407        C  0.00327031  0.35555600  0.74517545    -0.09300
C408        C  0.02305748  0.38311614  0.78536212     0.29580
F409        F  0.04095189  0.37455310  0.82361528    -0.19820
H410        H  0.03637873  0.43893839  0.82023831     0.17940
H411        H  0.47007817  0.34413559  0.67440481     0.17950
F412        F  0.46737043  0.40976055  0.66950308    -0.19810
C413        C  0.48333866  0.08610625  0.53888056    -0.21250
C414        C  0.00101019  0.07502888  0.49989708    -0.09290
C415        C  0.01812713  0.10031215  0.95860240     0.29570
C416        C  0.01812129  0.13616817  0.95671105    -0.21250
C417        C  0.99968322  0.14663633  0.49491336    -0.09300
C418        C  0.48204770  0.12134223  0.53602909     0.29580
F419        F  0.46448180  0.13118918  0.57391334    -0.19820
H420        H  0.47031966  0.06726325  0.57130009     0.17940
H421        H  0.03167898  0.15534076  0.92470449     0.17950
F422        F  0.03414699  0.08982654  0.91957115    -0.19810
C423        C  0.48279071  0.36291771  0.95151826    -0.21250
C424        C  0.00027991  0.35290268  0.49108668    -0.09290
C425        C  0.01739834  0.37891827  0.53347049     0.29570
C426        C  0.01645800  0.41433206  0.53657257    -0.21250
C427        C  0.49968397  0.42484088  0.49661435    -0.09300
C428        C  0.48306600  0.39900851  0.95375868     0.29580
F429        F  0.46785103  0.40906102  0.91385053    -0.19820
H430        H  0.46976731  0.34315486  0.91847129     0.17940
H431        H  0.02897212  0.43373013  0.57002974     0.17950
F432        F  0.03409285  0.36952894  0.57236305    -0.19810
O433        O  0.03309157  0.76734698  0.06272213    -0.74370
O434        O  0.03262858  0.76507621  0.41647531    -0.74400
O435        O  0.03308713  0.81548169  0.99042745    -0.74450
O436        O  0.03266870  0.71676300  0.48953655    -0.74500
O437        O  0.46642919  0.68393441  0.99173108    -0.74430
O438        O  0.46688607  0.78254061  0.48618888    -0.74410
O439        O  0.46641686  0.73057350  0.41537916    -0.74390
O440        O  0.46687774  0.73614233  0.06157594    -0.74450
Ni441      Ni  0.03522667  0.76733439  0.98970460     1.25410
Ni442      Ni  0.46428078  0.73205945  0.48856191     1.25360
C443        C  0.50003889  0.75233543  0.08608609     0.87810
C444        C  0.49946273  0.74762276  0.39187781     0.87750
C445        C  0.00004212  0.81515555  0.98870924     0.87770
C446        C  0.99951553  0.68426821  0.99190275     0.87940
O447        O  0.03307518  0.76888996  0.16666140    -0.74370
O448        O  0.03258156  0.76409854  0.31253105    -0.74400
O449        O  0.03121506  0.71670100  0.23359786    -0.74450
O450        O  0.03446367  0.81649874  0.24484020    -0.74500
O451        O  0.46824841  0.78494021  0.24146558    -0.74430
O452        O  0.46512840  0.68469748  0.23259051    -0.74410
O453        O  0.46640368  0.73289145  0.31099370    -0.74390
O454        O  0.46683459  0.73651410  0.16499194    -0.74450
Ni455      Ni  0.03517091  0.76766856  0.23962475     1.25410
Ni456      Ni  0.46426490  0.73365110  0.23772083     1.25360
C457        C  0.50002280  0.75287342  0.14190934     0.87810
C458        C  0.49943413  0.74798124  0.33578787     0.87750
C459        C  0.99781792  0.68433332  0.22940583     0.87770
C460        C  0.00189490  0.81711968  0.24387158     0.87940
C461        C  0.49985253  0.96322924  0.99956354     0.02350
C462        C  0.46360995  0.96351726  0.00100623     0.02350
C463        C  0.46396194  0.00017236  0.00134410     0.02470
C464        C  0.50055540  0.53647617  0.00154059     0.02350
C465        C  0.03681227  0.53604494  0.00214336     0.02350
C466        C  0.03638449  0.99940456  0.00075747     0.02350
C467        C  0.50061990  0.96476749  0.25388363     0.02350
C468        C  0.46405963  0.96464633  0.26250747     0.02350
C469        C  0.46377510  0.50054020  0.24785611     0.02350
C470        C  0.99969328  0.53640683  0.23250669     0.02350
C471        C  0.03634521  0.53658065  0.24077302     0.02350
C472        C  0.03634407  0.50068975  0.24758070     0.02350
O473        O  0.26768705  0.53381415  0.07411193    -0.74370
O474        O  0.26566449  0.53314003  0.42794961    -0.74400
O475        O  0.21715959  0.53296206  0.00258823    -0.74450
O476        O  0.31629222  0.53401005  0.49945065    -0.74500
O477        O  0.28357482  0.96770595  0.00045574    -0.74430
O478        O  0.18466345  0.96664426  0.49756361    -0.74410
O479        O  0.23462765  0.96684882  0.42583860    -0.74390
O480        O  0.23352986  0.96748655  0.07197796    -0.74450
Ni481      Ni  0.26782236  0.53586851  0.00106886     1.25410
Ni482      Ni  0.23298502  0.96479712  0.49887209     1.25360
C483        C  0.25058360  0.00070938  0.09701956     0.87810
C484        C  0.25002226  0.99992320  0.40292049     0.87750
C485        C  0.18479394  0.49964390  0.50026104     0.87770
C486        C  0.31615422  0.50100371  0.50006777     0.87940
O487        O  0.26625193  0.53316502  0.32448930    -0.74370
O488        O  0.26674732  0.53375955  0.17837908    -0.74400
O489        O  0.21711099  0.53325604  0.25161739    -0.74450
O490        O  0.31581291  0.53360200  0.25211015    -0.74500
O491        O  0.28281902  0.96728603  0.24815510    -0.74430
O492        O  0.18418065  0.96690368  0.24792527    -0.74410
O493        O  0.23368757  0.96742493  0.17543854    -0.74390
O494        O  0.23343750  0.96683414  0.32157508    -0.74450
Ni495      Ni  0.26764823  0.53582071  0.25168633     1.25410
Ni496      Ni  0.23234566  0.96474422  0.24826406     1.25360
C497        C  0.24985908  0.49991758  0.34699746     0.87810
C498        C  0.25034991  0.50068740  0.15293991     0.87750
C499        C  0.18450648  0.50001903  0.24964639     0.87770
C500        C  0.31549118  0.50047231  0.24999393     0.87940
O501        O  0.26743479  0.73168164  0.43815994    -0.74370
O502        O  0.26867365  0.73342479  0.08442397    -0.74400
O503        O  0.21914367  0.68307274  0.51007420    -0.74450
O504        O  0.31705953  0.78208522  0.01201680    -0.74500
O505        O  0.28340864  0.81468697  0.50957523    -0.74430
O506        O  0.18554915  0.71580362  0.01413497    -0.74410
O507        O  0.23672549  0.76776874  0.08524761    -0.74390
O508        O  0.23213852  0.76266041  0.43907707    -0.74450
Ni509      Ni  0.26926848  0.73137786  0.01122623     1.25410
Ni510      Ni  0.23324192  0.76639587  0.01210899     1.25360
C511        C  0.24939042  0.74674476  0.41466472     0.87810
C512        C  0.25295463  0.75091820  0.10886628     0.87750
C513        C  0.18627778  0.68323060  0.01179123     0.87770
C514        C  0.31622158  0.81455788  0.01004429     0.87940
O515        O  0.23542735  0.76655102  0.18958314    -0.74370
O516        O  0.23256540  0.76324862  0.33563146    -0.74400
O517        O  0.28266343  0.81474258  0.26773218    -0.74450
O518        O  0.18530002  0.71513362  0.25907808    -0.74500
O519        O  0.21934690  0.68287429  0.25599697    -0.74430
O520        O  0.31626179  0.78218905  0.26678334    -0.74410
O521        O  0.26598714  0.73035281  0.33413171    -0.74390
O522        O  0.26984006  0.73469070  0.18828064    -0.74450
Ni523      Ni  0.23274780  0.76606216  0.26284885     1.25410
Ni524      Ni  0.26907945  0.73139730  0.26115376     1.25360
C525        C  0.25291627  0.75094449  0.16491763     0.87810
C526        C  0.24910126  0.74653654  0.35881043     0.87750
C527        C  0.31557589  0.81478296  0.27044959     0.87770
C528        C  0.18638167  0.68273375  0.25647056     0.87940
C529        C  0.11933651  0.63670363  0.28961002    -0.21250
C530        C  0.14904611  0.64467972  0.25383557    -0.09290
C531        C  0.14252083  0.61647981  0.21502126     0.29570
C532        C  0.10598147  0.58143108  0.21080325    -0.21250
C533        C  0.07563232  0.57367086  0.24593159    -0.09300
C534        C  0.08315263  0.60106144  0.28636356     0.29580
F535        F  0.05478961  0.59391103  0.32121834    -0.19820
H536        H  0.12425345  0.65808060  0.32009745     0.17940
H537        H  0.10068290  0.56101297  0.17895787     0.17950
F538        F  0.17068369  0.62380032  0.17965682    -0.19810
C539        C  0.42476893  0.88953523  0.28765918    -0.21250
C540        C  0.42633711  0.92644047  0.28188066    -0.09290
C541        C  0.38996811  0.92419910  0.29566239     0.29570
C542        C  0.35372926  0.88844757  0.28954378    -0.21250
C543        C  0.35332936  0.85275509  0.27856563    -0.09300
C544        C  0.38953432  0.85339822  0.28226935     0.29580
F545        F  0.39124766  0.81935178  0.28296239    -0.19820
H546        H  0.44945991  0.88705568  0.30015147     0.17940
H547        H  0.32628267  0.88842108  0.29650929     0.17950
F548        F  0.38939512  0.95353085  0.32369312    -0.19810
C549        C  0.13672562  0.51627257  0.29089081    -0.21250
C550        C  0.14673451  0.49989417  0.24919270    -0.09290
C551        C  0.12052597  0.98353119  0.20716707     0.29570
C552        C  0.08514836  0.98457746  0.20635841    -0.21250
C553        C  0.07477887  0.50054336  0.24834621    -0.09300
C554        C  0.10063109  0.51593309  0.29098926     0.29580
F555        F  0.09088647  0.53065922  0.33249266    -0.19820
H556        H  0.15656470  0.52863228  0.32373442     0.17940
H557        H  0.06557471  0.97265734  0.17321918     0.17950
F558        F  0.12957345  0.96729409  0.16659538    -0.19810
C559        C  0.39523709  0.97637453  0.21352748    -0.21250
C560        C  0.42576239  0.50056087  0.24863902    -0.09290
C561        C  0.41994399  0.52526022  0.28373448     0.29570
C562        C  0.38420838  0.52568336  0.28330926    -0.21250
C563        C  0.35333484  0.50050871  0.24939953    -0.09300
C564        C  0.35889400  0.97549417  0.21493595     0.29580
F565        F  0.32929938  0.95056728  0.18225062    -0.19820
H566        H  0.39937015  0.95750734  0.18606634     0.17940
H567        H  0.38032665  0.54507437  0.31014025     0.17950
F568        F  0.44920005  0.54938933  0.31734706    -0.19810
C569        C  0.10317593  0.58355121  0.46541706    -0.21250
C570        C  0.07548082  0.57402573  0.00471992    -0.09290
C571        C  0.08498864  0.60043060  0.04681966     0.29570
C572        C  0.12105693  0.63623020  0.04895546    -0.21250
C573        C  0.14868448  0.64538665  0.00992529    -0.09300
C574        C  0.13980256  0.61866610  0.46836264     0.29580
F575        F  0.16599066  0.62714457  0.42992845    -0.19820
H576        H  0.09623810  0.56373116  0.43243516     0.17940
H577        H  0.12773135  0.65651042  0.08140449     0.17950
F578        F  0.05930495  0.59124150  0.08582853    -0.19810
C579        C  0.36079766  0.87743666  0.96664027    -0.21250
C580        C  0.35367819  0.85244838  0.00787367    -0.09290
C581        C  0.38270621  0.86376888  0.54651353     0.29570
C582        C  0.41793047  0.90024443  0.54456966    -0.21250
C583        C  0.42532360  0.92521370  0.00311707    -0.09300
C584        C  0.39670382  0.91318917  0.96366605     0.29580
F585        F  0.40390855  0.93561099  0.92185600    -0.19820
H586        H  0.33893894  0.86871720  0.93610732     0.17940
H587        H  0.43964848  0.90898336  0.57522166     0.17950
F588        F  0.37650742  0.83989114  0.58657993    -0.19810
C589        C  0.12158168  0.48478620  0.45780625    -0.21250
C590        C  0.14691837  0.49926359  0.50073294    -0.09290
C591        C  0.13585894  0.01351658  0.04380033     0.29570
C592        C  0.09963707  0.01292231  0.04398367    -0.21250
C593        C  0.07440165  0.49894847  0.00075778    -0.09300
C594        C  0.08582187  0.48509907  0.45747909     0.29580
F595        F  0.06252547  0.47251897  0.41475219    -0.19820
H596        H  0.12992641  0.47402475  0.42419804     0.17940
H597        H  0.09125614  0.02356203  0.07767318     0.17950
F598        F  0.15990182  0.02737344  0.08584952    -0.19810
C599        C  0.40048872  0.98650591  0.04293555    -0.21250
C600        C  0.42583516  0.50057773  0.00102351    -0.09290
C601        C  0.41500401  0.51501874  0.45888930     0.29570
C602        C  0.37950403  0.51585709  0.45909827    -0.21250
C603        C  0.35399355  0.50125594  0.50067499    -0.09300
C604        C  0.36450501  0.98640047  0.04250521     0.29580
F605        F  0.34028821  0.97251401  0.08321302    -0.19820
H606        H  0.40858432  0.97553331  0.07584252     0.17940
H607        H  0.37146694  0.52704929  0.42636050     0.17950
F608        F  0.43841045  0.52761396  0.41729843    -0.19810
C609        C  0.03358592  0.64692817  0.21464678    -0.21250
C610        C  0.99761652  0.64647066  0.21972035    -0.09290
C611        C  0.46275470  0.61045559  0.20809272     0.29570
C612        C  0.46448119  0.57540431  0.20093977    -0.21250
C613        C  0.99942761  0.57419584  0.21283782    -0.09300
C614        C  0.03404804  0.61160070  0.20633782     0.29580
F615        F  0.06515214  0.61500426  0.17974359    -0.19820
H616        H  0.06132798  0.67478226  0.21310022     0.17940
H617        H  0.43812813  0.54979066  0.18620545     0.17950
F618        F  0.42736926  0.60900538  0.20235735    -0.19810
C619        C  0.02277358  0.91889636  0.28766159    -0.21250
C620        C  0.50330363  0.92794081  0.24927956    -0.09290
C621        C  0.48555446  0.90129761  0.20747109     0.29570
C622        C  0.48488276  0.86495518  0.20606284    -0.21250
C623        C  0.00327191  0.85556010  0.24520478    -0.09300
C624        C  0.02305271  0.88311902  0.28539455     0.29580
F625        F  0.04094111  0.87455494  0.32365421    -0.19820
H626        H  0.03636804  0.93894066  0.32026777     0.17940
H627        H  0.47009715  0.84414546  0.17441755     0.17950
F628        F  0.46739060  0.90977033  0.16950675    -0.19810
C629        C  0.48326180  0.58611706  0.03887497    -0.21250
C630        C  0.00092346  0.57503929  0.99988516    -0.09290
C631        C  0.01818345  0.60030258  0.45860352     0.29570
C632        C  0.01815595  0.63614649  0.45670620    -0.21250
C633        C  0.99964606  0.64667060  0.99491966    -0.09300
C634        C  0.48199531  0.62136570  0.03603156     0.29580
F635        F  0.46444460  0.63122616  0.07392180    -0.19820
H636        H  0.47023918  0.56727580  0.07129514     0.17940
H637        H  0.03171259  0.65532242  0.42470219     0.17950
F638        F  0.03421954  0.58982927  0.41957979    -0.19810
C639        C  0.48288695  0.86292548  0.45150422    -0.21250
C640        C  0.00021851  0.85291700  0.99108993    -0.09290
C641        C  0.01732276  0.87892567  0.03348212     0.29570
C642        C  0.01636531  0.91432949  0.03659267    -0.21250
C643        C  0.49961136  0.92484011  0.99661547    -0.09300
C644        C  0.48318550  0.89902727  0.45373743     0.29580
F645        F  0.46798409  0.90909018  0.41382471    -0.19820
H646        H  0.46985823  0.84316287  0.41845814     0.17940
H647        H  0.02887312  0.93372538  0.07005293     0.17950
F648        F  0.03402029  0.86953910  0.07237381    -0.19810
O649        O  0.03312428  0.76731106  0.56272393    -0.74370
O650        O  0.03259429  0.76510591  0.91647884    -0.74400
O651        O  0.03313194  0.81545271  0.49043051    -0.74450
O652        O  0.03263702  0.71679828  0.98954121    -0.74500
O653        O  0.46646014  0.68390447  0.49172826    -0.74430
O654        O  0.46686314  0.78256871  0.98618797    -0.74410
O655        O  0.46639299  0.73060101  0.91537934    -0.74390
O656        O  0.46689971  0.73611088  0.56157231    -0.74450
Ni657      Ni  0.03526239  0.76730090  0.48970389     1.25410
Ni658      Ni  0.46425597  0.73208947  0.98856354     1.25360
C659        C  0.50005954  0.75230800  0.58608467     0.87810
C660        C  0.49944004  0.74764397  0.89187924     0.87750
C661        C  0.00009074  0.81513378  0.48871138     0.87770
C662        C  0.99954750  0.68423295  0.49189793     0.87940
O663        O  0.03309258  0.76887161  0.66667128    -0.74370
O664        O  0.03256175  0.76410125  0.81254342    -0.74400
O665        O  0.03120971  0.71669120  0.73363527    -0.74450
O666        O  0.03446615  0.81649230  0.74482639    -0.74500
O667        O  0.46825194  0.78493965  0.74143672    -0.74430
O668        O  0.46512232  0.68469246  0.73260331    -0.74410
O669        O  0.46638988  0.73289880  0.81098674    -0.74390
O670        O  0.46684593  0.73650180  0.66498300    -0.74450
Ni671      Ni  0.03516957  0.76766040  0.73963729     1.25410
Ni672      Ni  0.46426351  0.73364860  0.73771200     1.25360
C673        C  0.50003753  0.75285413  0.64190784     0.87810
C674        C  0.49941692  0.74799135  0.83578896     0.87750
C675        C  0.99781172  0.68432551  0.72943459     0.87770
C676        C  0.00189905  0.81711585  0.74384324     0.87940
C677        C  0.49992521  0.96323202  0.49956955     0.02350
C678        C  0.46368322  0.96352055  0.50100045     0.02350
C679        C  0.46403444  0.00017400  0.50134718     0.02470
C680        C  0.50066309  0.53648298  0.50154877     0.02350
C681        C  0.03691665  0.53604579  0.50215059     0.02350
C682        C  0.03647094  0.99941681  0.50075892     0.02350
C683        C  0.50063567  0.96476548  0.75388621     0.02350
C684        C  0.46407466  0.96464275  0.76251379     0.02350
C685        C  0.46377424  0.50053852  0.74786944     0.02350
C686        C  0.99969053  0.53640387  0.73251174     0.02350
C687        C  0.03634352  0.53657746  0.74076478     0.02350
C688        C  0.03634197  0.50068543  0.74756214     0.02350
O689        O  0.26780129  0.53381579  0.57411270    -0.74370
O690        O  0.26554900  0.53313884  0.92794853    -0.74400
O691        O  0.21728294  0.53297274  0.50258805    -0.74450
O692        O  0.31617802  0.53401775  0.99944895    -0.74500
O693        O  0.28364838  0.96770793  0.50045058    -0.74430
O694        O  0.18458307  0.96663065  0.99755718    -0.74410
O695        O  0.23455839  0.96684175  0.92583763    -0.74390
O696        O  0.23360845  0.96749369  0.57197783    -0.74450
Ni697      Ni  0.26794115  0.53586998  0.50106971     1.25410
Ni698      Ni  0.23290879  0.96478967  0.99887153     1.25360
C699        C  0.25066000  0.00071619  0.59701993     0.87810
C700        C  0.24995967  0.99991649  0.90291948     0.87750
C701        C  0.18467331  0.49963057  0.00026205     0.87770
C702        C  0.31604520  0.50101403  0.00006625     0.87940
O703        O  0.26620706  0.53316570  0.82448840    -0.74370
O704        O  0.26679451  0.53376154  0.67837860    -0.74400
O705        O  0.21711276  0.53325843  0.75155586    -0.74450
O706        O  0.31581384  0.53360275  0.75216898    -0.74500
O707        O  0.28283302  0.96728581  0.74819246    -0.74430
O708        O  0.18419536  0.96690477  0.74788042    -0.74410
O709        O  0.23373355  0.96742917  0.67543584    -0.74390
O710        O  0.23341815  0.96683066  0.82157162    -0.74450
Ni711      Ni  0.26764954  0.53582219  0.75168546     1.25410
Ni712      Ni  0.23235974  0.96474466  0.74826051     1.25360
C713        C  0.24979454  0.49991793  0.84699621     0.87810
C714        C  0.25041452  0.50068944  0.65293954     0.87750
C715        C  0.18450777  0.50002199  0.74957478     0.87770
C716        C  0.31549107  0.50047251  0.75006006     0.87940
O717        O  0.26737987  0.73164696  0.93816069    -0.74370
O718        O  0.26873140  0.73345955  0.58442670    -0.74400
O719        O  0.21907847  0.68303713  0.01007182    -0.74450
O720        O  0.31711475  0.78211884  0.51201639    -0.74500
O721        O  0.28335417  0.81465382  0.00957400    -0.74430
O722        O  0.18560698  0.71583212  0.51413841    -0.74410
O723        O  0.23677944  0.76779984  0.58524868    -0.74390
O724        O  0.23208739  0.76262962  0.93907245    -0.74450
Ni725      Ni  0.26932750  0.73141339  0.51122717     1.25410
Ni726      Ni  0.23329662  0.76642738  0.51211173     1.25360
C727        C  0.24934261  0.74671579  0.91466272     0.87810
C728        C  0.25300581  0.75094729  0.60886815     0.87750
C729        C  0.18634163  0.68326203  0.51179396     0.87770
C730        C  0.31627598  0.81459040  0.51004404     0.87940
O731        O  0.23545550  0.76656499  0.68957722    -0.74370
O732        O  0.23254669  0.76323953  0.83562286    -0.74400
O733        O  0.28267120  0.81474293  0.76774737    -0.74450
O734        O  0.18530237  0.71513739  0.75904789    -0.74500
O735        O  0.21934535  0.68287390  0.75598062    -0.74430
O736        O  0.31626382  0.78218371  0.76681321    -0.74410
O737        O  0.26596317  0.73033841  0.83413736    -0.74390
O738        O  0.26986379  0.73470012  0.68828877    -0.74450
Ni739      Ni  0.23275290  0.76606465  0.76284078     1.25410
Ni740      Ni  0.26907933  0.73139452  0.76116141     1.25360
C741        C  0.25295101  0.75096196  0.66491911     0.87810
C742        C  0.24907080  0.74651900  0.85880864     0.87750
C743        C  0.31558176  0.81477981  0.77047430     0.87770
C744        C  0.18638125  0.68273579  0.75644358     0.87940
C745        C  0.11934040  0.63670224  0.78959337    -0.21250
C746        C  0.14904413  0.64468211  0.75380806    -0.09290
C747        C  0.14251471  0.61648261  0.71499125     0.29570
C748        C  0.10597608  0.58143168  0.71078016    -0.21250
C749        C  0.07563190  0.57366840  0.74591841    -0.09300
C750        C  0.08315803  0.60105760  0.78635464     0.29580
F751        F  0.05480270  0.59390266  0.82122352    -0.19820
H752        H  0.12426154  0.65807746  0.82008499     0.17940
H753        H  0.10067397  0.56101436  0.67893260     0.17950
F754        F  0.17067317  0.62380473  0.67961956    -0.19810
C755        C  0.42478044  0.88952708  0.78765359    -0.21250
C756        C  0.42635139  0.92643492  0.78188531    -0.09290
C757        C  0.38998520  0.92419552  0.79568007     0.29570
C758        C  0.35374364  0.88844515  0.78957018    -0.21250
C759        C  0.35333828  0.85275060  0.77858812    -0.09300
C760        C  0.38954275  0.85339127  0.78227524     0.29580
F761        F  0.39125352  0.81934325  0.78296022    -0.19820
H762        H  0.44947197  0.88704324  0.80013081     0.17940
H763        H  0.32629941  0.88842126  0.79654499     0.17950
F764        F  0.38941825  0.95352945  0.82371266    -0.19810
C765        C  0.13673277  0.51627402  0.79083061    -0.21250
C766        C  0.14673670  0.49989877  0.74912425    -0.09290
C767        C  0.12053714  0.98353127  0.70712366     0.29570
C768        C  0.08515754  0.98457431  0.70632555    -0.21250
C769        C  0.07477636  0.50053853  0.74831077    -0.09300
C770        C  0.10063625  0.51592939  0.79094600     0.29580
F771        F  0.09089708  0.53065134  0.83245882    -0.19820
H772        H  0.15657714  0.52863393  0.82366935     0.17940
H773        H  0.06557956  0.97265295  0.67319044     0.17950
F774        F  0.12958040  0.96729378  0.66654845    -0.19810
C775        C  0.39524857  0.97637482  0.71355288    -0.21250
C776        C  0.42576281  0.50056189  0.74866694    -0.09290
C777        C  0.41995156  0.52526264  0.78376879     0.29570
C778        C  0.38421400  0.52568292  0.78336250    -0.21250
C779        C  0.35333380  0.50050687  0.74946174    -0.09300
C780        C  0.35890602  0.97549518  0.71497029     0.29580
F781        F  0.32931072  0.95057476  0.68228114    -0.19820
H782        H  0.39937905  0.95750931  0.68608604     0.17940
H783        H  0.38033707  0.54507419  0.81019848     0.17950
F784        F  0.44921600  0.54939499  0.81736967    -0.19810
C785        C  0.10308132  0.58353333  0.96541050    -0.21250
C786        C  0.07557791  0.57403078  0.50473143    -0.09290
C787        C  0.08507666  0.60043179  0.54683340     0.29570
C788        C  0.12113248  0.63624325  0.54896429    -0.21250
C789        C  0.14875583  0.64541441  0.50992629    -0.09300
C790        C  0.13972017  0.61863554  0.96836192     0.29580
F791        F  0.16590914  0.62709991  0.92993224    -0.19820
H792        H  0.09613710  0.56371163  0.93242902     0.17940
H793        H  0.12780148  0.65652023  0.58141573     0.17950
F794        F  0.05939607  0.59122728  0.58584837    -0.19810
C795        C  0.36086420  0.87745884  0.46662989    -0.21250
C796        C  0.35373383  0.85247686  0.50787321    -0.09290
C797        C  0.38265263  0.86374696  0.04651297     0.29570
C798        C  0.41786804  0.90023269  0.04457569    -0.21250
C799        C  0.42539590  0.92522020  0.50310377    -0.09300
C800        C  0.39677932  0.91320094  0.46364930     0.29580
F801        F  0.40399489  0.93561845  0.42183219    -0.19820
H802        H  0.33900776  0.86874158  0.43609446     0.17940
H803        H  0.43958797  0.90897445  0.07522597     0.17950
F804        F  0.37646368  0.83986642  0.08657310    -0.19810
C805        C  0.12145866  0.48476948  0.95780943    -0.21250
C806        C  0.14679497  0.49924465  0.00073701    -0.09290
C807        C  0.13594888  0.01354042  0.54380271     0.29570
C808        C  0.09972707  0.01294600  0.54398466    -0.21250
C809        C  0.07452132  0.49896212  0.50075330    -0.09300
C810        C  0.08570003  0.48508465  0.95748281     0.29580
F811        F  0.06240369  0.47250850  0.91475550    -0.19820
H812        H  0.12980362  0.47400981  0.92419978     0.17940
H813        H  0.09134574  0.02358646  0.57767310     0.17950
F814        F  0.15999272  0.02739954  0.58585099    -0.19810
C815        C  0.40056333  0.98651024  0.54293671    -0.21250
C816        C  0.42594469  0.50057056  0.50101840    -0.09290
C817        C  0.41489676  0.51502870  0.95889443     0.29570
C818        C  0.37939830  0.51587056  0.95910180    -0.21250
C819        C  0.35388696  0.50127124  0.00067750    -0.09300
C820        C  0.36457976  0.98640417  0.54250505     0.29580
F821        F  0.34036607  0.97252426  0.58321688    -0.19820
H822        H  0.40866122  0.97554273  0.57584688     0.17940
H823        H  0.37136232  0.52706233  0.92636254     0.17950
F824        F  0.43830229  0.52762076  0.91730301    -0.19810
C825        C  0.03357892  0.64692233  0.71466971    -0.21250
C826        C  0.99760925  0.64646317  0.71974983    -0.09290
C827        C  0.46274618  0.61044861  0.70811607     0.29570
C828        C  0.46447330  0.57539834  0.70095628    -0.21250
C829        C  0.99942193  0.57419157  0.71284794    -0.09300
C830        C  0.03404109  0.61159659  0.70634918     0.29580
F831        F  0.06514003  0.61500259  0.67974045    -0.19820
H832        H  0.06132053  0.67477682  0.71312228     0.17940
H833        H  0.43811972  0.54978436  0.68622359     0.17950
F834        F  0.42736036  0.60899824  0.70238511    -0.19810
C835        C  0.02278881  0.91889261  0.78763855    -0.21250
C836        C  0.50331816  0.92793978  0.74927280    -0.09290
C837        C  0.48556675  0.90130065  0.70746117     0.29570
C838        C  0.48489262  0.86495734  0.70604534    -0.21250
C839        C  0.00327977  0.85555698  0.74517724    -0.09300
C840        C  0.02306605  0.88311491  0.78536601     0.29580
F841        F  0.04095693  0.87454884  0.82362058    -0.19820
H842        H  0.03638810  0.93893681  0.82024359     0.17940
H843        H  0.47010457  0.84414978  0.67439881     0.17950
F844        F  0.46740179  0.90977755  0.66950277    -0.19810
C845        C  0.48334055  0.58610622  0.53887990    -0.21250
C846        C  0.00101173  0.57502842  0.49989497    -0.09290
C847        C  0.01810163  0.60031086  0.95859272     0.29570
C848        C  0.01809966  0.63616739  0.95670395    -0.21250
C849        C  0.99968349  0.64663580  0.49491233    -0.09300
C850        C  0.48204850  0.62134170  0.53602860     0.29580
F851        F  0.46448199  0.63118784  0.57391292    -0.19820
H852        H  0.47032177  0.56726297  0.57129928     0.17940
H853        H  0.03165824  0.65534076  0.92469822     0.17950
F854        F  0.03411946  0.58982341  0.91956086    -0.19810
C855        C  0.48284590  0.86293700  0.95150036    -0.21250
C856        C  0.00027876  0.85290299  0.49108836    -0.09290
C857        C  0.01739798  0.87891888  0.53347183     0.29570
C858        C  0.01645712  0.91433250  0.53657487    -0.21250
C859        C  0.49968003  0.92483954  0.49661491    -0.09300
C860        C  0.48312413  0.89902812  0.95373750     0.29580
F861        F  0.46791194  0.90908200  0.91382767    -0.19820
H862        H  0.46982131  0.84317276  0.91845480     0.17940
H863        H  0.02897185  0.93373058  0.57003190     0.17950
F864        F  0.03409384  0.86953005  0.57236326    -0.19810
O865        O  0.53308932  0.26734137  0.06272420    -0.74370
O866        O  0.53262821  0.26507589  0.41647670    -0.74400
O867        O  0.53307598  0.31547542  0.99043240    -0.74450
O868        O  0.53266785  0.21676257  0.48953791    -0.74500
O869        O  0.96643934  0.18393595  0.99173097    -0.74430
O870        O  0.96688896  0.28254176  0.48618772    -0.74410
O871        O  0.96641889  0.23057414  0.41537864    -0.74390
O872        O  0.96686857  0.23613597  0.06157610    -0.74450
Ni873      Ni  0.53522421  0.26733005  0.98970707     1.25410
Ni874      Ni  0.96428325  0.23206060  0.48856107     1.25360
C875        C  0.00003019  0.25233721  0.08608593     0.87810
C876        C  0.99946451  0.24762278  0.39187681     0.87750
C877        C  0.50002831  0.31514498  0.98871435     0.87770
C878        C  0.49952426  0.18426094  0.99190437     0.87940
O879        O  0.53307337  0.26888529  0.16666274    -0.74370
O880        O  0.53258081  0.26409791  0.31253251    -0.74400
O881        O  0.53121354  0.21669841  0.23360150    -0.74450
O882        O  0.53446279  0.31649663  0.24483909    -0.74500
O883        O  0.96824560  0.28493962  0.24146875    -0.74430
O884        O  0.96512513  0.18469650  0.23258949    -0.74410
O885        O  0.96640346  0.23289077  0.31099459    -0.74390
O886        O  0.96682817  0.23651326  0.16499331    -0.74450
Ni887      Ni  0.53516969  0.26766613  0.23962609     1.25410
Ni888      Ni  0.96426172  0.23365029  0.23772215     1.25360
C889        C  0.00001553  0.25287376  0.14190897     0.87810
C890        C  0.99943468  0.24798060  0.33578692     0.87750
C891        C  0.49781622  0.18433090  0.22941011     0.87770
C892        C  0.50189416  0.31711786  0.24386994     0.87940
C893        C  0.99981138  0.46323104  0.99958056     0.02350
C894        C  0.96357336  0.46352800  0.00101277     0.02350
C895        C  0.96393124  0.50018527  0.00134839     0.02470
C896        C  0.00058819  0.03648466  0.00154956     0.02350
C897        C  0.53684230  0.03604039  0.00212461     0.02350
C898        C  0.53635228  0.49939829  0.00075905     0.02350
C899        C  0.00061974  0.46476784  0.25388110     0.02350
C900        C  0.96405956  0.46464732  0.26250377     0.02350
C901        C  0.96377420  0.00054060  0.24785809     0.02350
C902        C  0.49969143  0.03640526  0.23250821     0.02350
C903        C  0.53634388  0.03658027  0.24077364     0.02350
C904        C  0.53634353  0.00068994  0.24758245     0.02350
O905        O  0.76770886  0.03382269  0.07411522    -0.74370
O906        O  0.76566081  0.03313923  0.42795144    -0.74400
O907        O  0.71720891  0.03297292  0.00254852    -0.74450
O908        O  0.81628673  0.03401042  0.49945598    -0.74500
O909        O  0.78354873  0.46771968  0.00045105    -0.74430
O910        O  0.68466616  0.46664460  0.49755967    -0.74410
O911        O  0.73463242  0.46684895  0.42583726    -0.74390
O912        O  0.73350398  0.46749203  0.07197630    -0.74450
Ni913      Ni  0.76787099  0.03587791  0.00107116     1.25410
Ni914      Ni  0.73298774  0.46479748  0.49887085     1.25360
C915        C  0.75055850  0.50071466  0.09701815     0.87810
C916        C  0.75002773  0.49992335  0.40291908     0.87750
C917        C  0.68478762  0.99964137  0.50025730     0.87770
C918        C  0.81614965  0.00100448  0.50007258     0.87940
O919        O  0.76625033  0.03316576  0.32449257    -0.74370
O920        O  0.76675036  0.03376530  0.17838284    -0.74400
O921        O  0.71711223  0.03326080  0.25161964    -0.74450
O922        O  0.81581236  0.03360289  0.25211549    -0.74500
O923        O  0.78281923  0.46728869  0.24814332    -0.74430
O924        O  0.68418041  0.46690492  0.24793248    -0.74410
O925        O  0.73367994  0.46742870  0.17543624    -0.74390
O926        O  0.73344289  0.46683495  0.32157292    -0.74450
Ni927      Ni  0.76764870  0.03582375  0.25169009     1.25410
Ni928      Ni  0.73234546  0.46474634  0.24826171     1.25360
C929        C  0.74985649  0.99991774  0.34699929     0.87810
C930        C  0.75035423  0.00069395  0.15294203     0.87750
C931        C  0.68450730  0.00002423  0.24964685     0.87770
C932        C  0.81548936  0.00047252  0.24999892     0.87940
O933        O  0.76743370  0.23168032  0.43815205    -0.74370
O934        O  0.76867756  0.23343952  0.08441715    -0.74400
O935        O  0.71914309  0.18307244  0.51006825    -0.74450
O936        O  0.81705075  0.28210623  0.01200959    -0.74500
O937        O  0.78340990  0.31468704  0.50956634    -0.74430
O938        O  0.68554584  0.21579385  0.01412926    -0.74410
O939        O  0.73671143  0.26776601  0.08524122    -0.74390
O940        O  0.73213816  0.26265984  0.43907008    -0.74450
Ni941      Ni  0.76927202  0.23139235  0.01122007     1.25410
Ni942      Ni  0.73322652  0.26639179  0.01210212     1.25360
C943        C  0.74938949  0.24674382  0.41465729     0.87810
C944        C  0.75294986  0.25092421  0.10885960     0.87750
C945        C  0.68628713  0.18322782  0.01178769     0.87770
C946        C  0.81619967  0.31457183  0.01003868     0.87940
O947        O  0.73542307  0.26655488  0.18957815    -0.74370
O948        O  0.73256399  0.26324909  0.33562594    -0.74400
O949        O  0.78266093  0.31474491  0.26772734    -0.74450
O950        O  0.68529747  0.21513547  0.25907263    -0.74500
O951        O  0.71934471  0.18287661  0.25598670    -0.74430
O952        O  0.81625923  0.28219133  0.26677541    -0.74410
O953        O  0.76598541  0.23035298  0.33412262    -0.74390
O954        O  0.76983700  0.23469581  0.18827178    -0.74450
Ni955      Ni  0.73274512  0.26606429  0.26284382     1.25410
Ni956      Ni  0.76907707  0.23139976  0.26114452     1.25360
C957        C  0.75291230  0.25094963  0.16491079     0.87810
C958        C  0.74909989  0.24653630  0.35880308     0.87750
C959        C  0.81557344  0.31478521  0.27044334     0.87770
C960        C  0.68637933  0.18273572  0.25646281     0.87940
C961        C  0.61933539  0.13670520  0.28960540    -0.21250
C962        C  0.64904389  0.14468139  0.25382913    -0.09290
C963        C  0.64251792  0.11648084  0.21501539     0.29570
C964        C  0.60597889  0.08143148  0.21079972    -0.21250
C965        C  0.57563077  0.07367127  0.24592974    -0.09300
C966        C  0.58315194  0.10106242  0.28636124     0.29580
F967        F  0.55479028  0.09391178  0.32121828    -0.19820
H968        H  0.62425298  0.15808246  0.32009271     0.17940
H969        H  0.60067967  0.06101293  0.17895466     0.17950
F970        F  0.67067974  0.12380113  0.17964944    -0.19810
C971        C  0.92476683  0.38953567  0.28765302    -0.21250
C972        C  0.92633618  0.42644155  0.28187557    -0.09290
C973        C  0.88996754  0.42420101  0.29565742     0.29570
C974        C  0.85372815  0.38844992  0.28953861    -0.21250
C975        C  0.85332727  0.35275704  0.27855961    -0.09300
C976        C  0.88953180  0.35339924  0.28226262     0.29580
F977        F  0.89124439  0.31935235  0.28295486    -0.19820
H978        H  0.94945695  0.38705493  0.30014579     0.17940
H979        H  0.82628190  0.38842406  0.29650436     0.17950
F980        F  0.88939539  0.45353331  0.32368789    -0.19810
C981        C  0.63672480  0.01627426  0.29089309    -0.21250
C982        C  0.64673585  0.99989994  0.24919259    -0.09290
C983        C  0.62052691  0.48353132  0.20717443     0.29570
C984        C  0.58514943  0.48457736  0.20636330    -0.21250
C985        C  0.57477857  0.00054492  0.24834765    -0.09300
C986        C  0.60062970  0.01593346  0.29099170     0.29580
F987        F  0.59088328  0.03065697  0.33249614    -0.19820
H988        H  0.65656271  0.02863197  0.32373807     0.17940
H989        H  0.56557695  0.47265756  0.17322295     0.17950
F990        F  0.62957606  0.46729486  0.16660357    -0.19810
C991        C  0.89523828  0.47637622  0.21352060    -0.21250
C992        C  0.92576107  0.00056104  0.24864232    -0.09290
C993        C  0.91994413  0.02526310  0.28373492     0.29570
C994        C  0.88420874  0.02568679  0.28330946    -0.21250
C995        C  0.85333239  0.00050723  0.24940613    -0.09300
C996        C  0.85889517  0.47549621  0.21492654     0.29580
F997        F  0.82930088  0.45056796  0.18224177    -0.19820
H998        H  0.89937168  0.45750836  0.18606096     0.17940
H999        H  0.88032925  0.04508179  0.31013598     0.17950
F1000       F  0.94920202  0.04939571  0.31734331    -0.19810
C1001       C  0.60317317  0.08354998  0.46541798    -0.21250
C1002       C  0.57550607  0.07402109  0.00470563    -0.09290
C1003       C  0.58501369  0.10041425  0.04681760     0.29570
C1004       C  0.62107926  0.13621458  0.04895911    -0.21250
C1005       C  0.64870256  0.14538087  0.00992199    -0.09300
C1006       C  0.63980019  0.11866468  0.46836143     0.29580
F1007       F  0.66598734  0.12714145  0.42992644    -0.19820
H1008       H  0.59623439  0.06372913  0.43243678     0.17940
H1009       H  0.62775444  0.15648818  0.08141594     0.17950
F1010       F  0.55933260  0.09121273  0.08583184    -0.19810
C1011       C  0.86076531  0.37745257  0.96664060    -0.21250
C1012       C  0.85364706  0.35246631  0.00787528    -0.09290
C1013       C  0.88270780  0.36376769  0.54650440     0.29570
C1014       C  0.91793244  0.40024304  0.54456126    -0.21250
C1015       C  0.92528538  0.42523102  0.00312495    -0.09300
C1016       C  0.89666876  0.41320659  0.96367016     0.29580
F1017       F  0.90387493  0.43562840  0.92185976    -0.19820
H1018       H  0.83890917  0.36872956  0.93610358     0.17940
H1019       H  0.93965025  0.40898121  0.57521329     0.17950
F1020       F  0.87650852  0.33988938  0.58657029    -0.19810
C1021       C  0.62157688  0.98478729  0.45780198    -0.21250
C1022       C  0.64691230  0.99926062  0.50073006    -0.09290
C1023       C  0.63582177  0.51350848  0.04380540     0.29570
C1024       C  0.59960071  0.51291464  0.04398805    -0.21250
C1025       C  0.57444549  0.99895502  0.00071588    -0.09300
C1026       C  0.58581729  0.98510042  0.45747689     0.29580
F1027       F  0.56252069  0.97252275  0.41475010    -0.19820
H1028       H  0.62992217  0.97402846  0.42419178     0.17940
H1029       H  0.59121911  0.52355414  0.07767721     0.17950
F1030       F  0.65986434  0.52736539  0.08585477    -0.19810
C1031       C  0.90046260  0.48653217  0.04294167    -0.21250
C1032       C  0.92587325  0.00058532  0.00105649    -0.09290
C1033       C  0.91500059  0.01502083  0.45889117     0.29570
C1034       C  0.87950067  0.01585982  0.45910175    -0.21250
C1035       C  0.85398985  0.00125736  0.50067813    -0.09300
C1036       C  0.86447979  0.48642833  0.04250979     0.29580
F1037       F  0.84026455  0.47254856  0.08322004    -0.19820
H1038       H  0.90855855  0.47556257  0.07585138     0.17940
H1039       H  0.87146376  0.02705329  0.42636514     0.17950
F1040       F  0.93840666  0.02761695  0.41730002    -0.19810
C1041       C  0.53358331  0.14692540  0.21464599    -0.21250
C1042       C  0.49761427  0.14646815  0.21972383    -0.09290
C1043       C  0.96275191  0.11045432  0.20808917     0.29570
C1044       C  0.96447887  0.07540301  0.20093771    -0.21250
C1045       C  0.49942447  0.07419332  0.21283874    -0.09300
C1046       C  0.53404452  0.11159764  0.20633519     0.29580
F1047       F  0.56514590  0.11499972  0.17973568    -0.19820
H1048       H  0.56132530  0.17477936  0.21309691     0.17940
H1049       H  0.93812566  0.04978835  0.18620515     0.17950
F1050       F  0.92736630  0.10900367  0.20235340    -0.19810
C1051       C  0.52277301  0.41889461  0.28766004    -0.21250
C1052       C  0.00330285  0.42794088  0.24927845    -0.09290
C1053       C  0.98555545  0.40129827  0.20746901     0.29570
C1054       C  0.98488290  0.36495547  0.20606212    -0.21250
C1055       C  0.50327150  0.35555853  0.24520272    -0.09300
C1056       C  0.52305213  0.38311727  0.28539270     0.29580
F1057       F  0.54094034  0.37455297  0.32365239    -0.19820
H1058       H  0.53636719  0.43893857  0.32026658     0.17940
H1059       H  0.97009871  0.34414617  0.17441599     0.17950
F1060       F  0.96739450  0.40977210  0.16950200    -0.19810
C1061       C  0.98329441  0.08613052  0.03888286    -0.21250
C1062       C  0.50094644  0.07503137  0.99988064    -0.09290
C1063       C  0.51818068  0.10030159  0.45860566     0.29570
C1064       C  0.51815356  0.13614560  0.45670770    -0.21250
C1065       C  0.49966080  0.14666322  0.99492046    -0.09300
C1066       C  0.98202409  0.12137818  0.03603757     0.29580
F1067       F  0.96446869  0.13123480  0.07392552    -0.19820
H1068       H  0.97027213  0.06728980  0.07130346     0.17940
H1069       H  0.53170987  0.15532101  0.42470315     0.17950
F1070       F  0.53421584  0.08982731  0.41958172    -0.19810
C1071       C  0.98289146  0.36292656  0.45150053    -0.21250
C1072       C  0.50019746  0.35290606  0.99109585    -0.09290
C1073       C  0.51730268  0.37891957  0.03348447     0.29570
C1074       C  0.51633987  0.41432189  0.03659395    -0.21250
C1075       C  0.99956216  0.42483504  0.99663396    -0.09300
C1076       C  0.98318999  0.39902827  0.45373318     0.29580
F1077       F  0.96798954  0.40909141  0.41381962    -0.19820
H1078       H  0.96986362  0.34316413  0.41845410     0.17940
H1079       H  0.52884942  0.43372004  0.07005188     0.17950
F1080       F  0.53400760  0.36953978  0.07237417    -0.19810
O1081       O  0.53312421  0.26731094  0.56272527    -0.74370
O1082       O  0.53259252  0.26510298  0.91648117    -0.74400
O1083       O  0.53313234  0.31545250  0.49043168    -0.74450
O1084       O  0.53264281  0.21679510  0.98954220    -0.74500
O1085       O  0.96646208  0.18390566  0.49172759    -0.74430
O1086       O  0.96683517  0.28255623  0.98618933    -0.74410
O1087       O  0.96638572  0.23059669  0.91537846    -0.74390
O1088       O  0.96690250  0.23611219  0.56157115    -0.74450
Ni1089     Ni  0.53526218  0.26730061  0.48970521     1.25410
Ni1090     Ni  0.96424750  0.23208346  0.98856334     1.25360
C1091       C  0.00006225  0.25230902  0.58608360     0.87810
C1092       C  0.99943289  0.24764800  0.89187905     0.87750
C1093       C  0.50009132  0.31513385  0.48871268     0.87770
C1094       C  0.49954642  0.18423282  0.49189925     0.87940
O1095       O  0.53309238  0.26887311  0.66667295    -0.74370
O1096       O  0.53256094  0.26410045  0.81254524    -0.74400
O1097       O  0.53121422  0.21669292  0.73363552    -0.74450
O1098       O  0.53446061  0.31649161  0.74482913    -0.74500
O1099       O  0.96824427  0.28493518  0.74143152    -0.74430
O1100       O  0.96512704  0.18469196  0.73260213    -0.74410
O1101       O  0.96638513  0.23289650  0.81098388    -0.74390
O1102       O  0.96684700  0.23649946  0.66498016    -0.74450
Ni1103     Ni  0.53516903  0.26766105  0.73963895     1.25410
Ni1104     Ni  0.96426194  0.23364594  0.73770879     1.25360
C1105       C  0.00003932  0.25285457  0.64190677     0.87810
C1106       C  0.99941141  0.24799348  0.83578846     0.87750
C1107       C  0.49781778  0.18432513  0.72943474     0.87770
C1108       C  0.50189198  0.31711268  0.74384553     0.87940
C1109       C  0.99992849  0.46323237  0.49956524     0.02350
C1110       C  0.96368608  0.46352043  0.50099450     0.02350
C1111       C  0.96403704  0.50017379  0.50134202     0.02470
C1112       C  0.00066064  0.03648293  0.50154911     0.02350
C1113       C  0.53691406  0.03604576  0.50215393     0.02350
C1114       C  0.53647341  0.49941684  0.50075766     0.02350
C1115       C  0.00061803  0.46476410  0.75387089     0.02350
C1116       C  0.96406008  0.46464526  0.76250915     0.02350
C1117       C  0.96379023  0.00053798  0.74785626     0.02350
C1118       C  0.49970524  0.03640270  0.73251870     0.02350
C1119       C  0.53635856  0.03657725  0.74077745     0.02350
C1120       C  0.53636032  0.00068793  0.74758658     0.02350
O1121       O  0.76779097  0.03381473  0.57411439    -0.74370
O1122       O  0.76562388  0.03314813  0.92795016    -0.74400
O1123       O  0.71727609  0.03297056  0.50258500    -0.74450
O1124       O  0.81622498  0.03402651  0.99949225    -0.74500
O1125       O  0.78365113  0.46770834  0.50045205    -0.74430
O1126       O  0.68455074  0.46662950  0.99755928    -0.74410
O1127       O  0.73452734  0.46684767  0.92583642    -0.74390
O1128       O  0.73360886  0.46749432  0.57197662    -0.74450
Ni1129     Ni  0.76793458  0.03586902  0.50107128     1.25410
Ni1130     Ni  0.73287976  0.46479564  0.99887006     1.25360
C1131       C  0.75065871  0.50071697  0.59701848     0.87810
C1132       C  0.74992715  0.49992219  0.90291802     0.87750
C1133       C  0.68472222  0.99964223  0.00020985     0.87770
C1134       C  0.81609076  0.00102276  0.00011943     0.87940
O1135       O  0.76626430  0.03317190  0.82448976    -0.74370
O1136       O  0.76679167  0.03376203  0.67837976    -0.74400
O1137       O  0.71713785  0.03326257  0.75160054    -0.74450
O1138       O  0.81583774  0.03360430  0.75212878    -0.74500
O1139       O  0.78281870  0.46728958  0.74820105    -0.74430
O1140       O  0.68418053  0.46690709  0.74787042    -0.74410
O1141       O  0.73372511  0.46743092  0.67543513    -0.74390
O1142       O  0.73339666  0.46683529  0.82157101    -0.74450
Ni1143     Ni  0.76767509  0.03582529  0.75168684     1.25410
Ni1144     Ni  0.73234509  0.46474777  0.74825994     1.25360
C1145       C  0.74986142  0.99992502  0.84699921     0.87810
C1146       C  0.75040690  0.00068932  0.65294200     0.87750
C1147       C  0.68453236  0.00002607  0.74963196     0.87770
C1148       C  0.81551401  0.00047376  0.75001385     0.87940
O1149       O  0.76738205  0.23165941  0.93815482    -0.74370
O1150       O  0.76873277  0.23346017  0.58441927    -0.74400
O1151       O  0.71909237  0.18304419  0.01006784    -0.74450
O1152       O  0.81711529  0.28211821  0.51200714    -0.74500
O1153       O  0.78332755  0.31465730  0.00956722    -0.74430
O1154       O  0.68560725  0.21583262  0.51413280    -0.74410
O1155       O  0.73678144  0.26780107  0.58524108    -0.74390
O1156       O  0.73207314  0.26262495  0.93906475    -0.74450
Ni1157     Ni  0.76932752  0.23141292  0.51121948     1.25410
Ni1158     Ni  0.73329745  0.26642767  0.51210443     1.25360
C1159       C  0.74933696  0.24671951  0.91465584     0.87810
C1160       C  0.75300790  0.25094868  0.60886065     0.87750
C1161       C  0.68634123  0.18326214  0.51178902     0.87770
C1162       C  0.81627708  0.31459010  0.51003469     0.87940
O1163       O  0.73545589  0.26656605  0.68956811    -0.74370
O1164       O  0.73254118  0.26324049  0.83561346    -0.74400
O1165       O  0.78266628  0.31474514  0.76774014    -0.74450
O1166       O  0.68530354  0.21513711  0.75903641    -0.74500
O1167       O  0.71935116  0.18287804  0.75597438    -0.74430
O1168       O  0.81626312  0.28219006  0.76680892    -0.74410
O1169       O  0.76596299  0.23034470  0.83413227    -0.74390
O1170       O  0.76986770  0.23470475  0.68828298    -0.74450
Ni1171     Ni  0.73275058  0.26606556  0.76283119     1.25410
Ni1172     Ni  0.76908175  0.23140006  0.76115613     1.25360
C1173       C  0.75295336  0.25096438  0.66491165     0.87810
C1174       C  0.74906692  0.24652257  0.85880149     0.87750
C1175       C  0.81557781  0.31478426  0.77046996     0.87770
C1176       C  0.68638609  0.18273751  0.75643508     0.87940
C1177       C  0.61935051  0.13670479  0.78959143    -0.21250
C1178       C  0.64905208  0.14468317  0.75380387    -0.09290
C1179       C  0.64252402  0.11648123  0.71499125     0.29570
C1180       C  0.60598720  0.08142844  0.71078601    -0.21250
C1181       C  0.57564473  0.07366778  0.74592548    -0.09300
C1182       C  0.58317022  0.10105901  0.78635819     0.29580
F1183       F  0.55481526  0.09390543  0.82122696    -0.19820
H1184       H  0.62427155  0.15808227  0.82007996     0.17940
H1185       H  0.60068486  0.06100765  0.67894253     0.17950
F1186       F  0.67068146  0.12380267  0.67961824    -0.19810
C1187       C  0.92477226  0.38953580  0.78766835    -0.21250
C1188       C  0.92633958  0.42644061  0.78188946    -0.09290
C1189       C  0.88997172  0.42419971  0.79567735     0.29570
C1190       C  0.85373243  0.38844822  0.78956512    -0.21250
C1191       C  0.85333157  0.35275546  0.77858814    -0.09300
C1192       C  0.88953686  0.35339853  0.78228588     0.29580
F1193       F  0.89125024  0.31935205  0.78297608    -0.19820
H1194       H  0.94946550  0.38705732  0.80015342     0.17940
H1195       H  0.82628644  0.38842222  0.79653387     0.17950
F1196       F  0.88940056  0.45353219  0.82370805    -0.19810
C1197       C  0.63675322  0.01628332  0.79088154    -0.21250
C1198       C  0.64675925  0.99990139  0.74918379    -0.09290
C1199       C  0.62052022  0.48353131  0.70711481     0.29570
C1200       C  0.58513989  0.48457291  0.70632001    -0.21250
C1201       C  0.57479783  0.00054367  0.74834860    -0.09300
C1202       C  0.60065632  0.01594045  0.79098579     0.29580
F1203       F  0.59091600  0.03067068  0.83248902    -0.19820
H1204       H  0.65659625  0.02864817  0.82372082     0.17940
H1205       H  0.56556040  0.47265075  0.67318637     0.17950
F1206       F  0.62956220  0.46729349  0.66653878    -0.19810
C1207       C  0.89523312  0.47637925  0.71355402    -0.21250
C1208       C  0.92577962  0.00055910  0.74864361    -0.09290
C1209       C  0.91996420  0.02525728  0.78374385     0.29570
C1210       C  0.88422970  0.02568132  0.78332385    -0.21250
C1211       C  0.85335544  0.00050853  0.74941468    -0.09300
C1212       C  0.85889068  0.47549972  0.71497479     0.29580
F1213       F  0.82929442  0.45058010  0.68228616    -0.19820
H1214       H  0.89936235  0.45751370  0.68608586     0.17940
H1215       H  0.88034908  0.04507087  0.81015868     0.17950
F1216       F  0.94922105  0.04938180  0.81735843    -0.19810
C1217       C  0.60310361  0.08353748  0.96539125    -0.21250
C1218       C  0.57557593  0.07403082  0.50473322    -0.09290
C1219       C  0.58507596  0.10043351  0.54683381     0.29570
C1220       C  0.62113219  0.13624488  0.54896233    -0.21250
C1221       C  0.64875482  0.14541454  0.50992361    -0.09300
C1222       C  0.63973994  0.11864013  0.96834796     0.29580
F1223       F  0.66592741  0.12711589  0.92991365    -0.19820
H1224       H  0.59615871  0.06372236  0.93240262     0.17940
H1225       H  0.62780207  0.15652303  0.58141266     0.17950
F1226       F  0.55939637  0.09123104  0.58584981    -0.19810
C1227       C  0.86086642  0.37745941  0.46662163    -0.21250
C1228       C  0.85373547  0.35247651  0.50786414    -0.09290
C1229       C  0.88261484  0.36376884  0.04652314     0.29570
C1230       C  0.91782723  0.40025504  0.04458896    -0.21250
C1231       C  0.92539852  0.42521974  0.50309626    -0.09300
C1232       C  0.89678195  0.41320141  0.46364182     0.29580
F1233       F  0.90399780  0.43561986  0.42182559    -0.19820
H1234       H  0.83901006  0.36874300  0.43608626     0.17940
H1235       H  0.93954433  0.40899976  0.07524355     0.17950
F1236       F  0.87642308  0.33989006  0.08658616    -0.19810
C1237       C  0.62150494  0.98478361  0.95775342    -0.21250
C1238       C  0.64684463  0.99925902  0.00067832    -0.09290
C1239       C  0.63595189  0.51354073  0.54379958     0.29570
C1240       C  0.59973002  0.51294622  0.54398234    -0.21250
C1241       C  0.57451699  0.99896105  0.50075357    -0.09300
C1242       C  0.58574303  0.98509443  0.95743565     0.29580
F1243       F  0.56244159  0.97251490  0.91471321    -0.19820
H1244       H  0.62984801  0.97402470  0.92414132     0.17940
H1245       H  0.59134904  0.52358675  0.57767103     0.17950
F1246       F  0.65999617  0.52739996  0.58584748    -0.19810
C1247       C  0.90056623  0.48650903  0.54293323    -0.21250
C1248       C  0.92594140  0.00057102  0.50101875    -0.09290
C1249       C  0.91492808  0.01502939  0.95892818     0.29570
C1250       C  0.87943166  0.01587197  0.95914602    -0.21250
C1251       C  0.85393099  0.00128154  0.00073214    -0.09300
C1252       C  0.86458281  0.48640327  0.54250345     0.29580
F1253       F  0.84036957  0.47252239  0.58321559    -0.19820
H1254       H  0.90866439  0.47554069  0.57584231     0.17940
H1255       H  0.87138815  0.02705685  0.92640634     0.17950
F1256       F  0.93832492  0.02761373  0.91732785    -0.19810
C1257       C  0.53358929  0.14692350  0.71467588    -0.21250
C1258       C  0.49761853  0.14646297  0.71975230    -0.09290
C1259       C  0.96276067  0.11045143  0.70811075     0.29570
C1260       C  0.96449144  0.07540289  0.70094828    -0.21250
C1261       C  0.49943587  0.07419145  0.71285544    -0.09300
C1262       C  0.53405402  0.11159819  0.70635790     0.29580
F1263       F  0.56515490  0.11500615  0.67975164    -0.19820
H1264       H  0.56133004  0.17477889  0.71312918     0.17940
H1265       H  0.93814052  0.04978932  0.68620872     0.17950
F1266       F  0.92737426  0.10899866  0.70237257    -0.19810
C1267       C  0.52277763  0.41889158  0.78763690    -0.21250
C1268       C  0.00329918  0.42793626  0.74926177    -0.09290
C1269       C  0.98554269  0.40129176  0.70745633     0.29570
C1270       C  0.98487132  0.36494938  0.70604306    -0.21250
C1271       C  0.50326897  0.35555358  0.74517938    -0.09300
C1272       C  0.52305687  0.38311441  0.78536518     0.29580
F1273       F  0.54095197  0.37455199  0.82361812    -0.19820
H1274       H  0.53637888  0.43893733  0.82024005     0.17940
H1275       H  0.97008058  0.34413888  0.67440013     0.17950
F1276       F  0.96737269  0.40976385  0.66949953    -0.19810
C1277       C  0.98333948  0.08610682  0.53887968    -0.21250
C1278       C  0.50100947  0.07502832  0.49989803    -0.09290
C1279       C  0.51812766  0.10030954  0.95859399     0.29570
C1280       C  0.51812188  0.13616530  0.95670835    -0.21250
C1281       C  0.49968189  0.14663565  0.49491403    -0.09300
C1282       C  0.98204884  0.12134291  0.53602835     0.29580
F1283       F  0.96448298  0.13118996  0.57391257    -0.19820
H1284       H  0.97032029  0.06726371  0.57129908     0.17940
H1285       H  0.53168295  0.15534200  0.92470625     0.17950
F1286       F  0.53415180  0.08982899  0.91956296    -0.19810
C1287       C  0.98279570  0.36292942  0.95151693    -0.21250
C1288       C  0.50027988  0.35290305  0.49108923    -0.09290
C1289       C  0.51739934  0.37891894  0.53347258     0.29570
C1290       C  0.51645918  0.41433283  0.53657509    -0.21250
C1291       C  0.99968350  0.42484021  0.49661110    -0.09300
C1292       C  0.98307237  0.39902105  0.95375695     0.29580
F1293       F  0.96785894  0.40907466  0.91384816    -0.19820
H1294       H  0.96977255  0.34316695  0.91846959     0.17940
H1295       H  0.52897402  0.43373106  0.57003198     0.17950
F1296       F  0.53409470  0.36952980  0.57236432    -0.19810
O1297       O  0.53310032  0.76733855  0.06272361    -0.74370
O1298       O  0.53262672  0.76507558  0.41647662    -0.74400
O1299       O  0.53310715  0.81547937  0.99042902    -0.74450
O1300       O  0.53266696  0.71676248  0.48953762    -0.74500
O1301       O  0.96642973  0.68393846  0.99173049    -0.74430
O1302       O  0.96688821  0.78254166  0.48618788    -0.74410
O1303       O  0.96641873  0.73057421  0.41537843    -0.74390
O1304       O  0.96686858  0.73614081  0.06157552    -0.74450
Ni1305     Ni  0.53523592  0.76732603  0.98970559     1.25410
Ni1306     Ni  0.96428277  0.73206036  0.48856094     1.25360
C1307       C  0.00003025  0.75233833  0.08608515     0.87810
C1308       C  0.99946444  0.74762323  0.39187677     0.87750
C1309       C  0.50006542  0.81515982  0.98870909     0.87770
C1310       C  0.49951204  0.68425795  0.99190227     0.87940
O1311       O  0.53308130  0.76888879  0.16666425    -0.74370
O1312       O  0.53258159  0.76409849  0.31253385    -0.74400
O1313       O  0.53121731  0.71670010  0.23360334    -0.74450
O1314       O  0.53446661  0.81649873  0.24484044    -0.74500
O1315       O  0.96824537  0.78493987  0.24146873    -0.74430
O1316       O  0.96512615  0.68469742  0.23258904    -0.74410
O1317       O  0.96640363  0.73289110  0.31099428    -0.74390
O1318       O  0.96682844  0.73651414  0.16499288    -0.74450
Ni1319     Ni  0.53517374  0.76766811  0.23962781     1.25410
Ni1320     Ni  0.96426202  0.73365084  0.23772181     1.25360
C1321       C  0.00001576  0.75287478  0.14190842     0.87810
C1322       C  0.99943480  0.74798126  0.33578678     0.87750
C1323       C  0.49781992  0.68433278  0.22940949     0.87770
C1324       C  0.50189792  0.81711996  0.24386966     0.87940
C1325       C  0.99983637  0.96322611  0.99958326     0.02350
C1326       C  0.96359764  0.96352065  0.00102433     0.02350
C1327       C  0.96395885  0.00017961  0.00136810     0.02470
C1328       C  0.00056206  0.53648887  0.00153957     0.02350
C1329       C  0.53680574  0.53603232  0.00214393     0.02350
C1330       C  0.53639698  0.99941077  0.00073025     0.02350
C1331       C  0.00061916  0.96476750  0.25388247     0.02350
C1332       C  0.96405884  0.96464668  0.26250653     0.02350
C1333       C  0.96377576  0.50054163  0.24785549     0.02350
C1334       C  0.49969261  0.53640539  0.23250740     0.02350
C1335       C  0.53634455  0.53657934  0.24077395     0.02350
C1336       C  0.53634351  0.50068849  0.24758141     0.02350
O1337       O  0.76768514  0.53381442  0.07411165    -0.74370
O1338       O  0.76566471  0.53314074  0.42794937    -0.74400
O1339       O  0.71715565  0.53295824  0.00258781    -0.74450
O1340       O  0.81629255  0.53401065  0.49945004    -0.74500
O1341       O  0.78359056  0.96772382  0.00049346    -0.74430
O1342       O  0.68465995  0.96664153  0.49755685    -0.74410
O1343       O  0.73462949  0.96684748  0.42583895    -0.74390
O1344       O  0.73352294  0.96750037  0.07197763    -0.74450
Ni1345     Ni  0.76782028  0.53586869  0.00106860     1.25410
Ni1346     Ni  0.73298203  0.96479584  0.49887268     1.25360
C1347       C  0.75057319  0.00072253  0.09702056     0.87810
C1348       C  0.75002456  0.99992199  0.40292101     0.87750
C1349       C  0.68479438  0.49964474  0.50026143     0.87770
C1350       C  0.81615443  0.50100425  0.50006690     0.87940
O1351       O  0.76625217  0.53316562  0.32448898    -0.74370
O1352       O  0.76674708  0.53375988  0.17837876    -0.74400
O1353       O  0.71711087  0.53325618  0.25161735    -0.74450
O1354       O  0.81581309  0.53360277  0.25210954    -0.74500
O1355       O  0.78281618  0.96728890  0.24814604    -0.74430
O1356       O  0.68417993  0.96690954  0.24793178    -0.74410
O1357       O  0.73368088  0.96743415  0.17543688    -0.74390
O1358       O  0.73343913  0.96683507  0.32157361    -0.74450
Ni1359     Ni  0.76764824  0.53582117  0.25168600     1.25410
Ni1360     Ni  0.73234364  0.96474894  0.24826230     1.25360
C1361       C  0.74985938  0.49991822  0.34699723     0.87810
C1362       C  0.75034991  0.50068770  0.15293967     0.87750
C1363       C  0.68450649  0.50001905  0.24964643     0.87770
C1364       C  0.81549158  0.50047320  0.24999339     0.87940
O1365       O  0.76743597  0.73168233  0.43815611    -0.74370
O1366       O  0.76866532  0.73342603  0.08441981    -0.74400
O1367       O  0.71914503  0.68307351  0.51007101    -0.74450
O1368       O  0.81704575  0.78209135  0.01201309    -0.74500
O1369       O  0.78341002  0.81468778  0.50957126    -0.74430
O1370       O  0.68553593  0.71579099  0.01413173    -0.74410
O1371       O  0.73670850  0.76776149  0.08524399    -0.74390
O1372       O  0.73213963  0.76266103  0.43907388    -0.74450
Ni1373     Ni  0.76925970  0.73137903  0.01122252     1.25410
Ni1374     Ni  0.73322389  0.76638758  0.01210488     1.25360
C1375       C  0.74939149  0.74674550  0.41466122     0.87810
C1376       C  0.75294311  0.75091605  0.10886243     0.87750
C1377       C  0.68626985  0.68322067  0.01178914     0.87770
C1378       C  0.81620230  0.81456137  0.01004183     0.87940
O1379       O  0.73542059  0.76655130  0.18958133    -0.74370
O1380       O  0.73256494  0.76324951  0.33562963    -0.74400
O1381       O  0.78266030  0.81474398  0.26772874    -0.74450
O1382       O  0.68529707  0.71513383  0.25907857    -0.74500
O1383       O  0.71934475  0.68287539  0.25599374    -0.74430
O1384       O  0.81625883  0.78219066  0.26677621    -0.74410
O1385       O  0.76598720  0.73035424  0.33412667    -0.74390
O1386       O  0.76983416  0.73469187  0.18827520    -0.74450
Ni1387     Ni  0.73274452  0.76606291  0.26284732     1.25410
Ni1388     Ni  0.76907681  0.73139873  0.26114835     1.25360
C1389       C  0.75290826  0.75094438  0.16491392     0.87810
C1390       C  0.74910162  0.74653757  0.35880698     0.87750
C1391       C  0.81557294  0.81478449  0.27044449     0.87770
C1392       C  0.68637927  0.68273424  0.25646968     0.87940
C1393       C  0.61933476  0.63670313  0.28961027    -0.21250
C1394       C  0.64904422  0.64467974  0.25383541    -0.09290
C1395       C  0.64251949  0.61647962  0.21502160     0.29570
C1396       C  0.60598068  0.58143026  0.21080426    -0.21250
C1397       C  0.57563150  0.57366972  0.24593264    -0.09300
C1398       C  0.58315142  0.60106034  0.28636442     0.29580
F1399       F  0.55478844  0.59390944  0.32121947    -0.19820
H1400       H  0.62425138  0.65808014  0.32009750     0.17940
H1401       H  0.60068242  0.56101206  0.17895910     0.17950
F1402       F  0.67068225  0.62380054  0.17965685    -0.19810
C1403       C  0.92476652  0.88953459  0.28765420    -0.21250
C1404       C  0.92633599  0.92644073  0.28187944    -0.09290
C1405       C  0.88996770  0.92419993  0.29566406     0.29570
C1406       C  0.85372802  0.88844896  0.28954439    -0.21250
C1407       C  0.85332687  0.85275632  0.27856167    -0.09300
C1408       C  0.88953141  0.85339835  0.28226275     0.29580
F1409       F  0.89124399  0.81935140  0.28295224    -0.19820
H1410       H  0.94945661  0.88705333  0.30014578     0.17940
H1411       H  0.82628187  0.88842298  0.29651145     0.17950
F1412       F  0.88939604  0.95353309  0.32369331    -0.19810
C1413       C  0.63672556  0.51627239  0.29089099    -0.21250
C1414       C  0.64673439  0.49989388  0.24919296    -0.09290
C1415       C  0.62053043  0.98354075  0.20717161     0.29570
C1416       C  0.58515158  0.98458395  0.20636190    -0.21250
C1417       C  0.57477838  0.50054229  0.24834687    -0.09300
C1418       C  0.60063081  0.51593246  0.29098969     0.29580
F1419       F  0.59088623  0.53065865  0.33249307    -0.19820
H1420       H  0.65656483  0.52863249  0.32373438     0.17940
H1421       H  0.56558005  0.97266599  0.17322046     0.17950
F1422       F  0.62958310  0.96731077  0.16659689    -0.19810
C1423       C  0.89523345  0.97637035  0.21353054    -0.21250
C1424       C  0.92576303  0.50056229  0.24863822    -0.09290
C1425       C  0.91994467  0.52526185  0.28373334     0.29570
C1426       C  0.88420896  0.52568477  0.28330820    -0.21250
C1427       C  0.85333536  0.50050985  0.24939874    -0.09300
C1428       C  0.85888889  0.97548720  0.21494145     0.29580
F1429       F  0.82928900  0.95054761  0.18227092    -0.19820
H1430       H  0.89936454  0.95749863  0.18607484     0.17940
H1431       H  0.88032721  0.54507583  0.31013908     0.17950
F1432       F  0.94920080  0.54939123  0.31734567    -0.19810
C1433       C  0.60317645  0.58355118  0.46541729    -0.21250
C1434       C  0.57547442  0.57401299  0.00472031    -0.09290
C1435       C  0.58498325  0.60041658  0.04682148     0.29570
C1436       C  0.62105181  0.63621606  0.04895757    -0.21250
C1437       C  0.64867884  0.64537371  0.00992619    -0.09300
C1438       C  0.63980329  0.61866597  0.46836183     0.29580
F1439       F  0.66599109  0.62714343  0.42992751    -0.19820
H1440       H  0.59623827  0.56373048  0.43243604     0.17940
H1441       H  0.62772644  0.65649585  0.08140714     0.17950
F1442       F  0.55930013  0.59122633  0.08583129    -0.19810
C1443       C  0.86077879  0.87744863  0.96664999    -0.21250
C1444       C  0.85365673  0.85245578  0.00787910    -0.09290
C1445       C  0.88270726  0.86376949  0.54651014     0.29570
C1446       C  0.91793146  0.90024504  0.54456674    -0.21250
C1447       C  0.92530587  0.92522052  0.00313229    -0.09300
C1448       C  0.89668644  0.91320112  0.96368078     0.29580
F1449       F  0.90389359  0.93562608  0.92187323    -0.19820
H1450       H  0.83892186  0.86873200  0.93611533     0.17940
H1451       H  0.93964930  0.90898383  0.57521888     0.17950
F1452       F  0.87650822  0.83989158  0.58657641    -0.19810
C1453       C  0.62158187  0.48478701  0.45780752    -0.21250
C1454       C  0.64691886  0.49926445  0.50073393    -0.09290
C1455       C  0.63587868  0.01353115  0.04374844     0.29570
C1456       C  0.59965685  0.01293574  0.04393928    -0.21250
C1457       C  0.57439540  0.49893616  0.00075899    -0.09300
C1458       C  0.58582203  0.48509977  0.45748095     0.29580
F1459       F  0.56252527  0.47251956  0.41475435    -0.19820
H1460       H  0.62992639  0.47402557  0.42419910     0.17940
H1461       H  0.59127819  0.02357381  0.07763237     0.17950
F1462       F  0.65992486  0.02738703  0.08579470    -0.19810
C1463       C  0.90050684  0.98653847  0.04298688    -0.21250
C1464       C  0.92584163  0.50059052  0.00102393    -0.09290
C1465       C  0.91500362  0.51501868  0.45888678     0.29570
C1466       C  0.87950389  0.51585750  0.45909651    -0.21250
C1467       C  0.85399364  0.50125628  0.50067344    -0.09300
C1468       C  0.86452692  0.98643920  0.04256666     0.29580
F1469       F  0.84032275  0.97257295  0.08328858    -0.19820
H1470       H  0.90861074  0.97557550  0.07589641     0.17940
H1471       H  0.87146680  0.52705011  0.42635916     0.17950
F1472       F  0.93840992  0.52761410  0.41729580    -0.19810
C1473       C  0.53358666  0.64692670  0.21464801    -0.21250
C1474       C  0.49761771  0.64646983  0.21972351    -0.09290
C1475       C  0.96275411  0.61045600  0.20808932     0.29570
C1476       C  0.96448147  0.57540506  0.20093752    -0.21250
C1477       C  0.49942714  0.57419442  0.21283856    -0.09300
C1478       C  0.53404778  0.61159888  0.20633754     0.29580
F1479       F  0.56515081  0.61500162  0.17974144    -0.19820
H1480       H  0.56132892  0.67478054  0.21310076     0.17940
H1481       H  0.93812886  0.54979105  0.18620291     0.17950
F1482       F  0.92736844  0.60900510  0.20235262    -0.19810
C1483       C  0.52277610  0.91889662  0.28766023    -0.21250
C1484       C  0.00330243  0.92794085  0.24927951    -0.09290
C1485       C  0.98555460  0.90129828  0.20747022     0.29570
C1486       C  0.98488200  0.86495551  0.20606295    -0.21250
C1487       C  0.50327475  0.85556051  0.24520288    -0.09300
C1488       C  0.52305607  0.88311967  0.28539222     0.29580
F1489       F  0.54094556  0.87455604  0.32365097    -0.19820
H1490       H  0.53637087  0.93894076  0.32026641     0.17940
H1491       H  0.97009743  0.84414616  0.17441698     0.17950
F1492       F  0.96739294  0.90977200  0.16950410    -0.19810
C1493       C  0.98326911  0.58612951  0.03887522    -0.21250
C1494       C  0.50091618  0.57502633  0.99988537    -0.09290
C1495       C  0.51818307  0.60030278  0.45860544     0.29570
C1496       C  0.51815477  0.63614626  0.45670758    -0.21250
C1497       C  0.49963695  0.64665699  0.99491693    -0.09300
C1498       C  0.98200357  0.62137855  0.03603323     0.29580
F1499       F  0.96445193  0.63123822  0.07392310    -0.19820
H1500       H  0.97024554  0.56728741  0.07129443     0.17940
H1501       H  0.53171093  0.65532195  0.42470323     0.17950
F1502       F  0.53421918  0.58982948  0.41958172    -0.19810
C1503       C  0.98288916  0.86292675  0.45150341    -0.21250
C1504       C  0.50024830  0.85292513  0.99108217    -0.09290
C1505       C  0.51735807  0.87893998  0.03346793     0.29570
C1506       C  0.51639751  0.91434272  0.03657450    -0.21250
C1507       C  0.99958706  0.92483369  0.99663206    -0.09300
C1508       C  0.98318738  0.89902841  0.45373681     0.29580
F1509       F  0.96798612  0.90909134  0.41382395    -0.19820
H1510       H  0.96986074  0.84316430  0.41845713     0.17940
H1511       H  0.52890762  0.93374229  0.07003118     0.17950
F1512       F  0.53406209  0.86955969  0.07235840    -0.19810
O1513       O  0.53312237  0.76731043  0.56272460    -0.74370
O1514       O  0.53260306  0.76509847  0.91647920    -0.74400
O1515       O  0.53312983  0.81545178  0.49043140    -0.74450
O1516       O  0.53263633  0.71678515  0.98954116    -0.74500
O1517       O  0.96646189  0.68390526  0.49172732    -0.74430
O1518       O  0.96684296  0.78256150  0.98618714    -0.74410
O1519       O  0.96638444  0.73059958  0.91537794    -0.74390
O1520       O  0.96690164  0.73611176  0.56157109    -0.74450
Ni1521     Ni  0.53526044  0.76730019  0.48970488     1.25410
Ni1522     Ni  0.96424655  0.73208760  0.98856257     1.25360
C1523       C  0.00006130  0.75230861  0.58608375     0.87810
C1524       C  0.99943174  0.74764617  0.89187839     0.87750
C1525       C  0.50008859  0.81513272  0.48871226     0.87770
C1526       C  0.49954586  0.68423237  0.49189901     0.87940
O1527       O  0.53309255  0.76887140  0.66667049    -0.74370
O1528       O  0.53256762  0.76410092  0.81254231    -0.74400
O1529       O  0.53121127  0.71669053  0.73363233    -0.74450
O1530       O  0.53446984  0.81649281  0.74482698    -0.74500
O1531       O  0.96824823  0.78493812  0.74143289    -0.74430
O1532       O  0.96512073  0.68469218  0.73260193    -0.74410
O1533       O  0.96638394  0.73289761  0.81098395    -0.74390
O1534       O  0.96684596  0.73650145  0.66498044    -0.74450
Ni1535     Ni  0.53517231  0.76766025  0.73963606     1.25410
Ni1536     Ni  0.96426072  0.73364768  0.73770915     1.25360
C1537       C  0.00003827  0.75285428  0.64190695     0.87810
C1538       C  0.99941016  0.74799165  0.83578814     0.87750
C1539       C  0.49781286  0.68432509  0.72943360     0.87770
C1540       C  0.50190307  0.81711713  0.74384554     0.87940
C1541       C  0.99992656  0.96323309  0.49956916     0.02350
C1542       C  0.96368420  0.96352150  0.50099858     0.02350
C1543       C  0.96403478  0.00017474  0.50134524     0.02470
C1544       C  0.00066253  0.53648222  0.50154610     0.02350
C1545       C  0.53691729  0.53604663  0.50215252     0.02350
C1546       C  0.53646943  0.99941564  0.50075762     0.02350
C1547       C  0.00063257  0.96476401  0.75387210     0.02350
C1548       C  0.96407334  0.96464322  0.76250214     0.02350
C1549       C  0.96377515  0.50054026  0.74786783     0.02350
C1550       C  0.49968947  0.53640200  0.73251251     0.02350
C1551       C  0.53634254  0.53657555  0.74076510     0.02350
C1552       C  0.53634100  0.50068356  0.74756319     0.02350
O1553       O  0.76780186  0.53381649  0.57411249    -0.74370
O1554       O  0.76554712  0.53313893  0.92794828    -0.74400
O1555       O  0.71728341  0.53297355  0.50258820    -0.74450
O1556       O  0.81617805  0.53402193  0.99944891    -0.74500
O1557       O  0.78364650  0.96770821  0.50045788    -0.74430
O1558       O  0.68459884  0.96664413  0.99752015    -0.74410
O1559       O  0.73459861  0.96685657  0.92583991    -0.74390
O1560       O  0.73359923  0.96749258  0.57197890    -0.74450
Ni1561     Ni  0.76794155  0.53587070  0.50106948     1.25410
Ni1562     Ni  0.73292488  0.96480460  0.99887229     1.25360
C1563       C  0.75064710  0.00071536  0.59702073     0.87810
C1564       C  0.75000345  0.99993088  0.90292088     0.87750
C1565       C  0.68467070  0.49962549  0.00026171     0.87770
C1566       C  0.81604790  0.50101955  0.00006646     0.87940
O1567       O  0.76620694  0.53316596  0.82448824    -0.74370
O1568       O  0.76679462  0.53376212  0.67837846    -0.74400
O1569       O  0.71711248  0.53325836  0.75155572    -0.74450
O1570       O  0.81581407  0.53360364  0.75216881    -0.74500
O1571       O  0.78284139  0.96728994  0.74816512    -0.74430
O1572       O  0.68420561  0.96691147  0.74791839    -0.74410
O1573       O  0.73372176  0.96743084  0.67543966    -0.74390
O1574       O  0.73345292  0.96684117  0.82157627    -0.74450
Ni1575     Ni  0.76764951  0.53582261  0.75168532     1.25410
Ni1576     Ni  0.73236982  0.96475040  0.74826537     1.25360
C1577       C  0.74979474  0.49991815  0.84699597     0.87810
C1578       C  0.75041489  0.50069007  0.65293931     0.87750
C1579       C  0.68450766  0.50002174  0.74957470     0.87770
C1580       C  0.81549163  0.50047356  0.75005955     0.87940
O1581       O  0.76737100  0.73164735  0.93815743    -0.74370
O1582       O  0.76873319  0.73346070  0.58442333    -0.74400
O1583       O  0.71907347  0.68303287  0.01006879    -0.74450
O1584       O  0.81711616  0.78211967  0.51201242    -0.74500
O1585       O  0.78333179  0.81465114  0.00956978    -0.74430
O1586       O  0.68560844  0.71583298  0.51413549    -0.74410
O1587       O  0.73678134  0.76780110  0.58524494    -0.74390
O1588       O  0.73207004  0.76262111  0.93906783    -0.74450
Ni1589     Ni  0.76932895  0.73141422  0.51122355     1.25410
Ni1590     Ni  0.73329810  0.76642823  0.51210826     1.25360
C1591       C  0.74933050  0.74671234  0.91465876     0.87810
C1592       C  0.75300775  0.75094870  0.60886460     0.87750
C1593       C  0.68634300  0.68326284  0.51179118     0.87770
C1594       C  0.81627735  0.81459121  0.51004004     0.87940
O1595       O  0.73545609  0.76656652  0.68957215    -0.74370
O1596       O  0.73253957  0.76323871  0.83561722    -0.74400
O1597       O  0.78266855  0.81474375  0.76774515    -0.74450
O1598       O  0.68529976  0.71513757  0.75903917    -0.74500
O1599       O  0.71934336  0.68287467  0.75597559    -0.74430
O1600       O  0.81626151  0.78218491  0.76681423    -0.74410
O1601       O  0.76595686  0.73033839  0.83413525    -0.74390
O1602       O  0.76986465  0.73470192  0.68828670    -0.74450
Ni1603     Ni  0.73275006  0.76606516  0.76283521     1.25410
Ni1604     Ni  0.76907697  0.73139555  0.76115954     1.25360
C1605       C  0.75295235  0.75096362  0.66491555     0.87810
C1606       C  0.74906222  0.74651756  0.85880471     0.87750
C1607       C  0.81557932  0.81478099  0.77047398     0.87770
C1608       C  0.68637905  0.68273613  0.75643633     0.87940
C1609       C  0.61933940  0.63670217  0.78958864    -0.21250
C1610       C  0.64904222  0.64468202  0.75380194    -0.09290
C1611       C  0.64251272  0.61648144  0.71498657     0.29570
C1612       C  0.60597463  0.58142954  0.71077806    -0.21250
C1613       C  0.57563108  0.57366660  0.74591729    -0.09300
C1614       C  0.58315766  0.60105675  0.78635246     0.29580
F1615       F  0.55480320  0.59390211  0.82122260    -0.19820
H1616       H  0.62426078  0.65807803  0.82007949     0.17940
H1617       H  0.60067223  0.56101144  0.67893138     0.17950
F1618       F  0.67067041  0.62380331  0.67961383    -0.19810
C1619       C  0.92477858  0.88952994  0.78765435    -0.21250
C1620       C  0.92634950  0.92643706  0.78187724    -0.09290
C1621       C  0.88998283  0.92419877  0.79566714     0.29570
C1622       C  0.85374134  0.88844790  0.78956026    -0.21250
C1623       C  0.85333602  0.85275233  0.77858701    -0.09300
C1624       C  0.88954060  0.85339347  0.78227998     0.29580
F1625       F  0.89125112  0.81934553  0.78297337    -0.19820
H1626       H  0.94947095  0.88704799  0.80013337     0.17940
H1627       H  0.82629699  0.88842475  0.79653092     0.17950
F1628       F  0.88941531  0.95353385  0.82369602    -0.19810
C1629       C  0.63673246  0.51627344  0.79083075    -0.21250
C1630       C  0.64673634  0.49989809  0.74912445    -0.09290
C1631       C  0.62054553  0.98353137  0.70717261     0.29570
C1632       C  0.58516640  0.98457512  0.70636608    -0.21250
C1633       C  0.57477542  0.50053676  0.74831167    -0.09300
C1634       C  0.60063566  0.51592824  0.79094651     0.29580
F1635       F  0.59089648  0.53065015  0.83245938    -0.19820
H1636       H  0.65657708  0.52863382  0.82366919     0.17940
H1637       H  0.56559040  0.97265021  0.67322960     0.17950
F1638       F  0.62959022  0.96728937  0.66660381    -0.19810
C1639       C  0.89525454  0.97637529  0.71352585    -0.21250
C1640       C  0.92576371  0.50056364  0.74866531    -0.09290
C1641       C  0.91995237  0.52526413  0.78376747     0.29570
C1642       C  0.88421472  0.52568423  0.78336155    -0.21250
C1643       C  0.85333452  0.50050825  0.74946075    -0.09300
C1644       C  0.85891282  0.97549689  0.71493597     0.29580
F1645       F  0.82931790  0.95057290  0.68224890    -0.19820
H1646       H  0.89938705  0.95750906  0.68606240     0.17940
H1647       H  0.88033771  0.54507525  0.81019786     0.17950
F1648       F  0.94921682  0.54939636  0.81736839    -0.19810
C1649       C  0.60307480  0.58352084  0.96541062    -0.21250
C1650       C  0.57557870  0.57403170  0.50473186    -0.09290
C1651       C  0.58507793  0.60043371  0.54683275     0.29570
C1652       C  0.62113391  0.63624506  0.54896257    -0.21250
C1653       C  0.64875705  0.64541522  0.50992453    -0.09300
C1654       C  0.63971403  0.61862285  0.96836230     0.29580
F1655       F  0.66590237  0.62708765  0.92993178    -0.19820
H1656       H  0.59613010  0.56369955  0.93242860     0.17940
H1657       H  0.62780317  0.65652275  0.58141327     0.17950
F1658       F  0.55939754  0.59123031  0.58584768    -0.19810
C1659       C  0.86086555  0.87746003  0.46662663    -0.21250
C1660       C  0.85373513  0.85247767  0.50786954    -0.09290
C1661       C  0.88262842  0.86375196  0.04652154     0.29570
C1662       C  0.91784536  0.90023675  0.04458892    -0.21250
C1663       C  0.92539704  0.92522109  0.50310118    -0.09300
C1664       C  0.89678059  0.91320227  0.46364666     0.29580
F1665       F  0.90399614  0.93562050  0.42183027    -0.19820
H1666       H  0.83900918  0.86874302  0.43609116     0.17940
H1667       H  0.93956350  0.90897496  0.07524075     0.17950
F1668       F  0.87643590  0.83986886  0.08657976    -0.19810
C1669       C  0.62145434  0.48476029  0.95780995    -0.21250
C1670       C  0.64679086  0.49923655  0.00073730    -0.09290
C1671       C  0.63594429  0.01353283  0.54379860     0.29570
C1672       C  0.59972355  0.01294015  0.54398187    -0.21250
C1673       C  0.57452181  0.49896286  0.50075542    -0.09300
C1674       C  0.58569460  0.48507333  0.95748381     0.29580
F1675       F  0.56239825  0.47249665  0.91475651    -0.19820
H1676       H  0.62980011  0.47400172  0.92419999     0.17940
H1677       H  0.59134179  0.02357807  0.57767234     0.17950
F1678       F  0.65998629  0.02738586  0.58584898    -0.19810
C1679       C  0.90056268  0.98650892  0.54293603    -0.21250
C1680       C  0.92594424  0.50056994  0.50101532    -0.09290
C1681       C  0.91490294  0.51504238  0.95889604     0.29570
C1682       C  0.87940332  0.51588203  0.95910351    -0.21250
C1683       C  0.85389123  0.50127983  0.00067815    -0.09300
C1684       C  0.86457897  0.98640296  0.54250642     0.29580
F1685       F  0.84036475  0.97252010  0.58321692    -0.19820
H1686       H  0.90866034  0.97553954  0.57584446     0.17940
H1687       H  0.87136692  0.52707409  0.92636493     0.17950
F1688       F  0.93830914  0.52763718  0.91730548    -0.19810
C1689       C  0.53357859  0.64692057  0.71466790    -0.21250
C1690       C  0.49760939  0.64646219  0.71974890    -0.09290
C1691       C  0.96274657  0.61044953  0.70811545     0.29570
C1692       C  0.96447445  0.57539980  0.70095480    -0.21250
C1693       C  0.49942077  0.57418970  0.71284840    -0.09300
C1694       C  0.53403998  0.61159440  0.70634799     0.29580
F1695       F  0.56513826  0.61499959  0.67973862    -0.19820
H1696       H  0.56132042  0.67477476  0.71311938     0.17940
H1697       H  0.93812137  0.54978578  0.68622106     0.17950
F1698       F  0.92736051  0.60899858  0.70238397    -0.19810
C1699       C  0.52279096  0.91889195  0.78764820    -0.21250
C1700       C  0.00331346  0.92793752  0.74926337    -0.09290
C1701       C  0.98555882  0.90129550  0.70745555     0.29570
C1702       C  0.98488478  0.86495243  0.70604247    -0.21250
C1703       C  0.50328458  0.85555889  0.74518096    -0.09300
C1704       C  0.52306840  0.88311436  0.78537283     0.29580
F1705       F  0.54095687  0.87454583  0.82362785    -0.19820
H1706       H  0.53638814  0.93893384  0.82025556     0.17940
H1707       H  0.97009470  0.84414282  0.67439847     0.17950
F1708       F  0.96739109  0.90976976  0.66949804    -0.19810
C1709       C  0.98334030  0.58610568  0.53887750    -0.21250
C1710       C  0.50101202  0.57502900  0.49989737    -0.09290
C1711       C  0.51809203  0.60029619  0.95859101     0.29570
C1712       C  0.51808916  0.63615228  0.95670071    -0.21250
C1713       C  0.49968221  0.64663546  0.49491368    -0.09300
C1714       C  0.98204902  0.62134161  0.53602670     0.29580
F1715       F  0.96448249  0.63118775  0.57391098    -0.19820
H1716       H  0.97032103  0.56726218  0.57129653     0.17940
H1717       H  0.53164717  0.65532487  0.92469416     0.17950
F1718       F  0.53410873  0.58980750  0.91955896    -0.19810
C1719       C  0.98281956  0.86293323  0.95150855    -0.21250
C1720       C  0.50027665  0.85290183  0.49108913    -0.09290
C1721       C  0.51739633  0.87891788  0.53347233     0.29570
C1722       C  0.51645572  0.91433158  0.53657521    -0.21250
C1723       C  0.99968153  0.92484058  0.49661451    -0.09300
C1724       C  0.98309982  0.89902528  0.95375061     0.29580
F1725       F  0.96789102  0.90908408  0.91384181    -0.19820
H1726       H  0.96979777  0.84317267  0.91845919     0.17940
H1727       H  0.52897068  0.93372978  0.57003209     0.17950
F1728       F  0.53409243  0.86952914  0.57236358    -0.19810
loop_ 
_geom_bond_atom_site_label_1 
_geom_bond_atom_site_label_2 
_geom_bond_distance 
_geom_bond_site_symmetry_2 
_ccdc_geom_bond_type 
O1           Ni9   1.914   1_554  S
O1          C875   1.280       .  A
O2         Ni225   1.918       .  S
O2          C876   1.281   1_455  A
O3           Ni9   1.914       .  S
O3           C13   1.280       .  A
O4         Ni225   1.915       .  S
O4          C230   1.280   1_455  A
O5         Ni226   1.919       .  S
O5          C878   1.281       .  A
O6          Ni10   1.916       .  S
O6         C1093   1.280       .  A
O7          Ni10   1.919       .  S
O7           C12   1.281       .  A
O8         Ni226   1.913   1_554  S
O8           C11   1.280       .  A
Ni9         O218   1.918       .  S
Ni9         O220   1.916       .  S
Ni9       Ni1090   2.392   1_455  S
Ni10        O221   1.919       .  S
Ni10        O224   1.913       .  S
Ni10      Ni1089   2.392       .  S
C11         O865   1.280       .  A
C11          C25   1.461       .  S
C12         O866   1.281       .  A
C12          C26   1.469       .  S
C13        O1086   1.280   1_455  A
C13         C208   1.464       .  S
C14         O220   1.280   1_655  A
C14         O869   1.281       .  A
C14         C201   1.468       .  S
O15         Ni23   1.915       .  S
O15         C889   1.281       .  A
O16         Ni23   1.916       .  S
O16         C890   1.281   1_455  A
O17         Ni23   1.911       .  S
O17          C27   1.282   1_455  A
O18         Ni23   1.913       .  S
O18          C28   1.279       .  A
O19         Ni24   1.921       .  S
O19         C892   1.282       .  A
O20         Ni24   1.921       .  S
O20         C891   1.282       .  A
O21         Ni24   1.922       .  S
O21          C26   1.282       .  A
O22         Ni24   1.910       .  S
O22          C25   1.280       .  A
Ni23       Ni888   2.390   1_455  S
Ni24       Ni887   2.390       .  S
C25         O879   1.281       .  A
C26         O880   1.281       .  A
C27         O884   1.282       .  A
C27         C178   1.483       .  S
C28         O883   1.282   1_455  A
C28         C191   1.467       .  S
C29         C211   1.487       .  S
C29          C30   1.416   1_556  A
C29         C898   1.414   1_556  A
C30         C151   1.492       .  S
C30          C31   1.417       .  A
C31         C600   1.490       .  S
C31         C464   1.419       .  A
C32        C1062   1.493   1_554  S
C32         C463   1.419       .  A
C32         C897   1.419       .  A
C33         C138   1.491       .  S
C33         C896   1.419       .  A
C33         C466   1.415   1_545  A
C34         C593   1.489       .  S
C34         C893   1.414   1_454  A
C34         C465   1.415       .  A
C35         C188   1.488       .  S
C35          C36   1.438       .  A
C35        C1336   1.408       .  A
C36         C108   1.574       .  S
C36         C469   1.461       .  A
C37         C128   1.479       .  S
C37         C468   1.461   1_545  A
C37         C902   1.463       .  A
C38         C181   1.572       .  S
C38          C39   1.438   1_655  A
C38         C901   1.463       .  A
C39         C101   1.490       .  S
C39          C40   1.410       .  A
C40         C121   1.498       .  S
C40        C1331   1.408   1_545  A
O41         Ni49   1.916       .  S
O41         C483   1.281       .  A
O42        Ni265   1.915       .  S
O42         C484   1.281   1_545  A
O43         Ni49   1.918       .  S
O43         C269   1.281   1_545  A
O44        Ni265   1.919       .  S
O44          C54   1.281       .  A
O45        Ni266   1.917   1_554  S
O45         C702   1.281       .  A
O46         Ni50   1.917       .  S
O46         C485   1.280       .  A
O47         Ni50   1.916       .  S
O47          C52   1.280       .  A
O48        Ni266   1.914   1_554  S
O48          C51   1.281       .  A
Ni49        O258   1.914   1_554  S
Ni49        O260   1.919   1_554  S
Ni49       Ni698   2.392   1_544  S
Ni50        O261   1.917       .  S
Ni50        O264   1.914       .  S
Ni50       Ni697   2.392       .  S
C51         O473   1.281       .  A
C51         C498   1.464       .  S
C52         O474   1.281       .  A
C52         C497   1.464       .  S
C53         O259   1.281   1_565  A
C53         O478   1.280       .  A
C53         C158   1.466       .  S
C54         O693   1.281   1_545  A
C54         C171   1.467       .  S
O55         Ni63   1.911       .  S
O55          C65   1.280   1_545  A
O56         Ni63   1.919       .  S
O56          C66   1.281       .  A
O57         Ni63   1.918       .  S
O57          C67   1.281       .  A
O58         Ni63   1.918       .  S
O58          C68   1.281       .  A
O59         Ni64   1.916       .  S
O59         C500   1.281       .  A
O60         Ni64   1.917       .  S
O60         C499   1.280       .  A
O61         Ni64   1.912       .  S
O61         C498   1.280       .  A
O62         Ni64   1.919       .  S
O62         C497   1.281       .  A
Ni63       Ni496   2.392   1_545  S
Ni64       Ni495   2.392       .  S
C65         O494   1.281       .  A
C65         C484   1.464       .  S
C66         O493   1.280   1_545  A
C66         C483   1.464       .  S
C67         O492   1.280   1_545  A
C67         C118   1.467   1_545  S
C68         O491   1.281   1_545  A
C68         C131   1.472       .  S
O69        Ni293   1.915       .  S
O69          C79   1.281       .  A
O70         Ni77   1.917       .  S
O70          C80   1.281       .  A
O71        Ni293   1.917       .  S
O71         C297   1.281       .  A
O72         Ni77   1.918       .  S
O72          C82   1.281       .  A
O73        Ni294   1.918       .  S
O73         C298   1.281       .  A
O74         Ni78   1.916       .  S
O74          C81   1.280       .  A
O75         Ni78   1.917       .  S
O75          C80   1.281       .  A
O76        Ni294   1.913       .  S
O76          C79   1.280       .  A
Ni77        O285   1.915   1_554  S
Ni77        O287   1.917       .  S
Ni77        Ni78   2.392       .  S
Ni78        O289   1.917       .  S
Ni78        O292   1.913   1_554  S
C79          C94   1.462       .  S
C80          C93   1.468       .  S
C81         O287   1.281       .  A
C81         C141   1.467       .  S
C82         O289   1.280       .  A
C82         C148   1.468       .  S
O83         Ni91   1.921       .  S
O83          C93   1.282       .  A
O84         Ni91   1.911       .  S
O84          C94   1.280       .  A
O85         Ni91   1.920       .  S
O85          C95   1.281       .  A
O86         Ni91   1.917       .  S
O86          C96   1.281       .  A
O87         Ni92   1.913       .  S
O87          C96   1.280       .  A
O88         Ni92   1.911       .  S
O88          C95   1.282       .  A
O89         Ni92   1.915       .  S
O89          C94   1.281       .  A
O90         Ni92   1.915       .  S
O90          C93   1.280       .  A
Ni91        Ni92   2.390       .  S
C95         C111   1.483       .  S
C96          C98   1.467       .  S
C97          C98   1.403       .  A
C97         C102   1.398       .  A
C97         H104   1.083       .  S
C98          C99   1.403       .  A
C99         C100   1.395       .  A
C99         F106   1.358       .  S
C100        C101   1.412       .  A
C100        H105   1.083       .  S
C101        C102   1.405       .  A
C102        F103   1.355       .  S
C107        C108   1.416       .  A
C107        C112   1.392       .  A
C107        H114   1.064       .  S
C108        C109   1.421       .  A
C109        C110   1.406       .  A
C109        F116   1.351       .  S
C110        C111   1.402       .  A
C110        H115   1.083       .  S
C111        C112   1.399       .  A
C112        F113   1.358       .  S
C117        C118   1.402   1_545  A
C117        C122   1.398       .  A
C117        H124   1.083       .  S
C118        C551   1.403       .  A
C119        C120   1.397       .  A
C119        C550   1.403       .  A
C119        F126   1.357       .  S
C120        C553   1.406       .  A
C120        H125   1.083       .  S
C121        C122   1.407       .  A
C121        C552   1.406   1_545  A
C122        F123   1.357       .  S
C127        C132   1.398       .  A
C127        C560   1.407       .  A
C127        H134   1.083       .  S
C128        C129   1.412       .  A
C128        C559   1.407   1_545  A
C129        C130   1.399       .  A
C129        F136   1.357       .  S
C130        C131   1.403       .  A
C130        H135   1.083       .  S
C131        C564   1.406   1_545  A
C132        C563   1.406       .  A
C132        F133   1.356       .  S
C137        C142   1.397       .  A
C137        C354   1.405       .  A
C137        H144   1.083       .  S
C138        C139   1.404       .  A
C138        C353   1.405   1_554  A
C139        C140   1.398       .  A
C139        F146   1.354       .  S
C140        C141   1.402       .  A
C140        H145   1.083       .  S
C141        C358   1.404   1_554  A
C142        C357   1.404       .  A
C142        F143   1.358       .  S
C147        C148   1.403   1_556  A
C147        C152   1.398       .  A
C147        H154   1.084       .  S
C148        C365   1.403       .  A
C149        C150   1.398       .  A
C149        C364   1.403       .  A
C149        F156   1.358       .  S
C150        C367   1.405       .  A
C150        H155   1.082       .  S
C151        C152   1.407   1_554  A
C151        C366   1.405       .  A
C152        F153   1.356       .  S
C157        C158   1.401       .  A
C157        C162   1.397       .  A
C157        H164   1.084       .  S
C158        C807   1.404   1_565  A
C159        C160   1.398       .  A
C159        C806   1.404       .  A
C159        F166   1.357       .  S
C160        C593   1.405       .  A
C160        H165   1.084       .  S
C161        C466   1.489       .  S
C161        C592   1.405   1_565  A
C161        C378   1.406   1_554  A
C162        C377   1.406       .  A
C162        F163   1.356       .  S
C167        C172   1.398       .  A
C167        C600   1.404       .  A
C167        H174   1.083       .  S
C168        C463   1.490       .  S
C168        C599   1.404   1_545  A
C168        C385   1.407   1_554  A
C169        C170   1.398       .  A
C169        C384   1.407       .  A
C169        F176   1.356       .  S
C170        C171   1.401       .  A
C170        H175   1.084       .  S
C171        C820   1.403   1_545  A
C172        C819   1.403       .  A
C172        F173   1.356       .  S
C177        C178   1.397   1_455  A
C177        C182   1.394       .  A
C177        H184   1.083       .  S
C178       C1043   1.405       .  A
C179        C180   1.405       .  A
C179       C1042   1.405       .  A
C179        F186   1.357       .  S
C180       C1045   1.418       .  A
C180        H185   1.073       .  S
C181        C182   1.419   1_655  A
C181       C1044   1.418       .  A
C182        F183   1.347       .  S
C187        C192   1.396       .  A
C187       C1052   1.410       .  A
C187        H194   1.082       .  S
C188        C189   1.406       .  A
C188       C1051   1.410       .  A
C189        C190   1.399       .  A
C189        F196   1.357       .  S
C190       C1055   1.404       .  A
C190        H195   1.083       .  S
C191        C192   1.403       .  A
C191       C1054   1.404   1_455  A
C192        F193   1.358       .  S
C197        C202   1.399       .  A
C197       C1062   1.406   1_554  A
C197        H204   1.083       .  S
C198        C896   1.493   1_556  S
C198       C1061   1.406   1_456  A
C198        C415   1.406       .  A
C199        C200   1.396       .  A
C199        C414   1.406       .  A
C199        F206   1.355       .  S
C200        C417   1.400   1_455  A
C200        H205   1.084       .  S
C201        C416   1.400   1_655  A
C201       C1066   1.405   1_556  A
C202       C1065   1.405   1_554  A
C202        F203   1.358       .  S
C207        C212   1.397       .  A
C207       C1288   1.401       .  A
C207        H214   1.083       .  S
C208        C209   1.403   1_556  A
C208       C1287   1.401   1_455  A
C209        C210   1.395       .  A
C209        F216   1.358       .  S
C210       C1075   1.404   1_454  A
C210        H215   1.083       .  S
C211       C1074   1.404   1_556  A
C211        C428   1.407       .  A
C212        C427   1.407       .  A
C212        F213   1.358       .  S
O217       Ni225   1.914       .  S
O217       C1091   1.280       .  A
O218       C1092   1.281   1_455  A
O219       Ni225   1.914       .  S
O219        C229   1.280       .  A
O221       C1094   1.281       .  A
O222       Ni226   1.916       .  S
O222        C877   1.280       .  A
O223       Ni226   1.919       .  S
O223        C228   1.281       .  A
O224        C227   1.280       .  A
Ni225      Ni874   2.392   1_455  S
Ni226      Ni873   2.392       .  S
C227       O1081   1.280       .  A
C227        C241   1.461       .  S
C228       O1082   1.281       .  A
C228        C242   1.469       .  S
C229        O870   1.280   1_455  A
C229        C424   1.464       .  S
C230       O1085   1.281       .  A
C230        C417   1.468       .  S
O231       Ni239   1.915       .  S
O231       C1105   1.281       .  A
O232       Ni239   1.916       .  S
O232       C1106   1.281   1_455  A
O233       Ni239   1.911       .  S
O233        C243   1.282   1_455  A
O234       Ni239   1.913       .  S
O234        C244   1.279       .  A
O235       Ni240   1.921       .  S
O235       C1108   1.282       .  A
O236       Ni240   1.921       .  S
O236       C1107   1.282       .  A
O237       Ni240   1.922       .  S
O237        C242   1.282       .  A
O238       Ni240   1.910       .  S
O238        C241   1.280       .  A
Ni239     Ni1104   2.390   1_455  S
Ni240     Ni1103   2.390       .  S
C241       O1095   1.281       .  A
C242       O1096   1.281       .  A
C243       O1100   1.282       .  A
C243        C394   1.483       .  S
C244       O1099   1.282   1_455  A
C244        C407   1.467       .  S
C245        C427   1.487       .  S
C245        C246   1.416       .  A
C245       C1114   1.414       .  A
C246        C367   1.492       .  S
C246        C247   1.417       .  A
C247        C816   1.490       .  S
C247        C680   1.419       .  A
C248       C1278   1.493       .  S
C248        C679   1.419       .  A
C248       C1113   1.419       .  A
C249        C354   1.491       .  S
C249       C1112   1.419       .  A
C249        C682   1.415   1_545  A
C250        C809   1.489       .  S
C250       C1109   1.414   1_455  A
C250        C681   1.415       .  A
C251        C404   1.488       .  S
C251        C252   1.438       .  A
C251       C1552   1.408       .  A
C252        C324   1.574       .  S
C252        C685   1.461       .  A
C253        C344   1.479       .  S
C253        C684   1.461   1_545  A
C253       C1118   1.463       .  A
C254        C397   1.573       .  S
C254       C1117   1.463       .  A
C254        C255   1.438   1_655  A
C255        C317   1.490       .  S
C255        C256   1.410       .  A
C256        C337   1.498       .  S
C256       C1547   1.408   1_545  A
O257       Ni265   1.916       .  S
O257        C699   1.281       .  A
O258        C700   1.281   1_545  A
O259       Ni265   1.918       .  S
O260        C270   1.281   1_556  A
O261        C486   1.281       .  A
O262       Ni266   1.917       .  S
O262        C701   1.280   1_556  A
O263       Ni266   1.916       .  S
O263        C268   1.280       .  A
O264        C267   1.281       .  A
Ni265      Ni482   2.392   1_545  S
Ni266      Ni481   2.392   1_556  S
C267        O689   1.281       .  A
C267        C714   1.464       .  S
C268        O690   1.281       .  A
C268        C713   1.464       .  S
C269        O694   1.280   1_554  A
C269        C374   1.466       .  S
C270        O477   1.281   1_545  A
C270        C387   1.467       .  S
O271       Ni279   1.911       .  S
O271        C281   1.280   1_545  A
O272       Ni279   1.919       .  S
O272        C282   1.281       .  A
O273       Ni279   1.918       .  S
O273        C283   1.281       .  A
O274       Ni279   1.918       .  S
O274        C284   1.281       .  A
O275       Ni280   1.916       .  S
O275        C716   1.281       .  A
O276       Ni280   1.917       .  S
O276        C715   1.280       .  A
O277       Ni280   1.912       .  S
O277        C714   1.280       .  A
O278       Ni280   1.919       .  S
O278        C713   1.281       .  A
Ni279      Ni712   2.392   1_545  S
Ni280      Ni711   2.392       .  S
C281        O710   1.281       .  A
C281        C700   1.464       .  S
C282        O709   1.280   1_545  A
C282        C699   1.464       .  S
C283        O708   1.280   1_545  A
C283        C334   1.467   1_545  S
C284        O707   1.281   1_545  A
C284        C347   1.472       .  S
O285        C295   1.280       .  A
O286       Ni293   1.917       .  S
O286        C296   1.281       .  A
O288       Ni293   1.918       .  S
O288        C298   1.281       .  A
O290       Ni294   1.916       .  S
O290        C297   1.280       .  A
O291       Ni294   1.917       .  S
O291        C296   1.281       .  A
O292        C295   1.280       .  A
Ni293      Ni294   2.392       .  S
C295        C310   1.462       .  S
C296        C309   1.468       .  S
C297        C357   1.467       .  S
C298        C364   1.468       .  S
O299       Ni307   1.921       .  S
O299        C309   1.282       .  A
O300       Ni307   1.911       .  S
O300        C310   1.280       .  A
O301       Ni307   1.920       .  S
O301        C311   1.281       .  A
O302       Ni307   1.917       .  S
O302        C312   1.281       .  A
O303       Ni308   1.913       .  S
O303        C312   1.280       .  A
O304       Ni308   1.911       .  S
O304        C311   1.282       .  A
O305       Ni308   1.915       .  S
O305        C310   1.281       .  A
O306       Ni308   1.915       .  S
O306        C309   1.280       .  A
Ni307      Ni308   2.390       .  S
C311        C327   1.483       .  S
C312        C314   1.467       .  S
C313        C314   1.403       .  A
C313        C318   1.398       .  A
C313        H320   1.083       .  S
C314        C315   1.403       .  A
C315        C316   1.395       .  A
C315        F322   1.358       .  S
C316        C317   1.412       .  A
C316        H321   1.083       .  S
C317        C318   1.405       .  A
C318        F319   1.355       .  S
C323        C324   1.416       .  A
C323        C328   1.392       .  A
C323        H330   1.064       .  S
C324        C325   1.421       .  A
C325        C326   1.406       .  A
C325        F332   1.351       .  S
C326        C327   1.402       .  A
C326        H331   1.083       .  S
C327        C328   1.399       .  A
C328        F329   1.358       .  S
C333        C334   1.402   1_545  A
C333        C338   1.398       .  A
C333        H340   1.083       .  S
C334        C767   1.403       .  A
C335        C766   1.403       .  A
C335        C336   1.397       .  A
C335        F342   1.357       .  S
C336        C769   1.406       .  A
C336        H341   1.083       .  S
C337        C768   1.406   1_545  A
C337        C338   1.407       .  A
C338        F339   1.357       .  S
C343        C776   1.407       .  A
C343        C348   1.398       .  A
C343        H350   1.083       .  S
C344        C775   1.407   1_545  A
C344        C345   1.412       .  A
C345        C346   1.399       .  A
C345        F352   1.357       .  S
C346        C347   1.403       .  A
C346        H351   1.083       .  S
C347        C780   1.406   1_545  A
C348        C779   1.406       .  A
C348        F349   1.356       .  S
C353        C358   1.397       .  A
C353        H360   1.083       .  S
C354        C355   1.404       .  A
C355        C356   1.398       .  A
C355        F362   1.354       .  S
C356        C357   1.402       .  A
C356        H361   1.083       .  S
C358        F359   1.358       .  S
C363        C364   1.403       .  A
C363        C368   1.398       .  A
C363        H370   1.084       .  S
C365        C366   1.398       .  A
C365        F372   1.358       .  S
C366        H371   1.082       .  S
C367        C368   1.407       .  A
C368        F369   1.356       .  S
C373        C374   1.401   1_556  A
C373        C378   1.397       .  A
C373        H380   1.084       .  S
C374        C591   1.404   1_565  A
C375        C590   1.404       .  A
C375        C376   1.398       .  A
C375        F382   1.357       .  S
C376        C809   1.405       .  A
C376        H381   1.084       .  S
C377        C682   1.489       .  S
C377        C808   1.405   1_565  A
C378        F379   1.356       .  S
C383        C816   1.404       .  A
C383        C388   1.398       .  A
C383        H390   1.083       .  S
C384        C679   1.490       .  S
C384        C815   1.404   1_545  A
C385        C386   1.398       .  A
C385        F392   1.356       .  S
C386        C387   1.401   1_556  A
C386        H391   1.084       .  S
C387        C604   1.403   1_545  A
C388        C603   1.403       .  A
C388        F389   1.356       .  S
C393        C394   1.397   1_455  A
C393        C398   1.394       .  A
C393        H400   1.083       .  S
C394       C1259   1.405       .  A
C395       C1258   1.405       .  A
C395        C396   1.405       .  A
C395        F402   1.357       .  S
C396       C1261   1.418       .  A
C396        H401   1.073       .  S
C397       C1260   1.418       .  A
C397        C398   1.419   1_655  A
C398        F399   1.347       .  S
C403       C1268   1.410       .  A
C403        C408   1.396       .  A
C403        H410   1.082       .  S
C404       C1267   1.410       .  A
C404        C405   1.406       .  A
C405        C406   1.399       .  A
C405        F412   1.357       .  S
C406       C1271   1.404       .  A
C406        H411   1.083       .  S
C407       C1270   1.404   1_455  A
C407        C408   1.403       .  A
C408        F409   1.358       .  S
C413       C1278   1.406       .  A
C413        C418   1.399       .  A
C413        H420   1.083       .  S
C414       C1112   1.493       .  S
C414       C1277   1.406   1_455  A
C415        C416   1.396       .  A
C415        F422   1.355       .  S
C416        H421   1.084       .  S
C417       C1282   1.405       .  A
C418       C1281   1.405       .  A
C418        F419   1.358       .  S
C423       C1072   1.401       .  A
C423        C428   1.397       .  A
C423        H430   1.083       .  S
C424       C1071   1.401   1_455  A
C424        C425   1.403       .  A
C425        C426   1.395       .  A
C425        F432   1.358       .  S
C426       C1291   1.404   1_455  A
C426        H431   1.083       .  S
C427       C1290   1.404       .  A
C428        F429   1.358       .  S
O433       Ni441   1.914   1_554  S
O433       C1307   1.280       .  A
O434       Ni657   1.918       .  S
O434       C1308   1.281   1_455  A
O435       Ni441   1.914       .  S
O435        C445   1.280       .  A
O436       Ni657   1.916       .  S
O436        C662   1.280   1_455  A
O437       Ni658   1.919       .  S
O437       C1310   1.281       .  A
O438       Ni442   1.916       .  S
O438       C1525   1.280       .  A
O439       Ni442   1.919       .  S
O439        C444   1.281       .  A
O440       Ni658   1.913   1_554  S
O440        C443   1.280       .  A
Ni441       O650   1.918       .  S
Ni441       O652   1.916       .  S
Ni441     Ni1522   2.392   1_455  S
Ni442       O653   1.919       .  S
Ni442       O656   1.913       .  S
Ni442     Ni1521   2.392       .  S
C443       O1297   1.280       .  A
C443        C457   1.461       .  S
C444       O1298   1.281       .  A
C444        C458   1.469       .  S
C445       O1518   1.280   1_455  A
C445        C640   1.464       .  S
C446        O652   1.280   1_655  A
C446       O1301   1.281       .  A
C446        C633   1.468       .  S
O447       Ni455   1.915       .  S
O447       C1321   1.281       .  A
O448       Ni455   1.916       .  S
O448       C1322   1.281   1_455  A
O449       Ni455   1.911       .  S
O449        C459   1.282   1_455  A
O450       Ni455   1.913       .  S
O450        C460   1.279       .  A
O451       Ni456   1.921       .  S
O451       C1324   1.282       .  A
O452       Ni456   1.921       .  S
O452       C1323   1.282       .  A
O453       Ni456   1.922       .  S
O453        C458   1.282       .  A
O454       Ni456   1.910       .  S
O454        C457   1.280       .  A
Ni455     Ni1320   2.390   1_455  S
Ni456     Ni1319   2.390       .  S
C457       O1311   1.281       .  A
C458       O1312   1.281       .  A
C459       O1316   1.282       .  A
C459        C610   1.483       .  S
C460       O1315   1.282   1_455  A
C460        C623   1.467       .  S
C461        C643   1.487       .  S
C461        C462   1.416   1_556  A
C461       C1330   1.414   1_556  A
C462        C583   1.492       .  S
C462        C463   1.418   1_565  A
C464       C1494   1.493   1_554  S
C464       C1329   1.419       .  A
C465        C570   1.491       .  S
C465       C1328   1.419       .  A
C466       C1325   1.414   1_454  A
C467        C620   1.488       .  S
C467        C468   1.438       .  A
C467        C904   1.408   1_565  A
C468        C540   1.574       .  S
C469        C560   1.479       .  S
C469       C1334   1.463       .  A
C470        C613   1.572       .  S
C470       C1333   1.463       .  A
C470        C471   1.438   1_655  A
C471        C533   1.490       .  S
C471        C472   1.410       .  A
C472        C553   1.498       .  S
C472        C899   1.408       .  A
O473       Ni481   1.916       .  S
O474       Ni697   1.914       .  S
O475       Ni481   1.918       .  S
O475        C701   1.281       .  A
O476       Ni697   1.919       .  S
O476        C486   1.281       .  A
O477       Ni698   1.917   1_554  S
O478       Ni482   1.917       .  S
O479       Ni482   1.916       .  S
O479        C484   1.280       .  A
O480       Ni698   1.914   1_554  S
O480        C483   1.281   1_565  A
Ni481       O690   1.915   1_554  S
Ni481       O692   1.919   1_554  S
Ni482       O693   1.917       .  S
Ni482       O696   1.914       .  S
C485        O691   1.281       .  A
C485        C590   1.466       .  S
C486        C603   1.467       .  S
O487       Ni495   1.911       .  S
O487        C497   1.280       .  A
O488       Ni495   1.919       .  S
O488        C498   1.281       .  A
O489       Ni495   1.918       .  S
O489        C499   1.281       .  A
O490       Ni495   1.918       .  S
O490        C500   1.281       .  A
O491       Ni496   1.916       .  S
O492       Ni496   1.917       .  S
O493       Ni496   1.912       .  S
O494       Ni496   1.919       .  S
C499        C550   1.467       .  S
C500        C563   1.472       .  S
O501       Ni725   1.915       .  S
O501        C511   1.281       .  A
O502       Ni509   1.917       .  S
O502        C512   1.281       .  A
O503       Ni725   1.917       .  S
O503        C729   1.281       .  A
O504       Ni509   1.918       .  S
O504        C514   1.281       .  A
O505       Ni726   1.917       .  S
O505        C730   1.281       .  A
O506       Ni510   1.916       .  S
O506        C513   1.280       .  A
O507       Ni510   1.917       .  S
O507        C512   1.281       .  A
O508       Ni726   1.913       .  S
O508        C511   1.280       .  A
Ni509       O717   1.915   1_554  S
Ni509       O719   1.917       .  S
Ni509      Ni510   2.392       .  S
Ni510       O721   1.917       .  S
Ni510       O724   1.913   1_554  S
C511        C526   1.462       .  S
C512        C525   1.468       .  S
C513        O719   1.281       .  A
C513        C573   1.467       .  S
C514        O721   1.281       .  A
C514        C580   1.468       .  S
O515       Ni523   1.921       .  S
O515        C525   1.282       .  A
O516       Ni523   1.911       .  S
O516        C526   1.280       .  A
O517       Ni523   1.920       .  S
O517        C527   1.281       .  A
O518       Ni523   1.917       .  S
O518        C528   1.281       .  A
O519       Ni524   1.913       .  S
O519        C528   1.280       .  A
O520       Ni524   1.911       .  S
O520        C527   1.282       .  A
O521       Ni524   1.915       .  S
O521        C526   1.281       .  A
O522       Ni524   1.915       .  S
O522        C525   1.280       .  A
Ni523      Ni524   2.390       .  S
C527        C543   1.483       .  S
C528        C530   1.467       .  S
C529        C530   1.403       .  A
C529        C534   1.398       .  A
C529        H536   1.083       .  S
C530        C531   1.403       .  A
C531        C532   1.395       .  A
C531        F538   1.358       .  S
C532        C533   1.412       .  A
C532        H537   1.083       .  S
C533        C534   1.405       .  A
C534        F535   1.355       .  S
C539        C540   1.416       .  A
C539        C544   1.392       .  A
C539        H546   1.064       .  S
C540        C541   1.421       .  A
C541        C542   1.406       .  A
C541        F548   1.351       .  S
C542        C543   1.402       .  A
C542        H547   1.083       .  S
C543        C544   1.399       .  A
C544        F545   1.358       .  S
C549        C550   1.402       .  A
C549        C554   1.398       .  A
C549        H556   1.083       .  S
C551        C552   1.397       .  A
C551        F558   1.357       .  S
C552        H557   1.083       .  S
C553        C554   1.407       .  A
C554        F555   1.357       .  S
C559        C564   1.398       .  A
C559        H566   1.083       .  S
C560        C561   1.412       .  A
C561        C562   1.399       .  A
C561        F568   1.357       .  S
C562        C563   1.403       .  A
C562        H567   1.083       .  S
C564        F565   1.356       .  S
C569        C786   1.405       .  A
C569        C574   1.397       .  A
C569        H576   1.083       .  S
C570        C785   1.405   1_554  A
C570        C571   1.404       .  A
C571        C572   1.398       .  A
C571        F578   1.354       .  S
C572        C573   1.402       .  A
C572        H577   1.083       .  S
C573        C790   1.404   1_554  A
C574        C789   1.404       .  A
C574        F575   1.358       .  S
C579        C580   1.403   1_556  A
C579        C584   1.398       .  A
C579        H586   1.084       .  S
C580        C797   1.403       .  A
C581        C796   1.403       .  A
C581        C582   1.398       .  A
C581        F588   1.358       .  S
C582        C799   1.405       .  A
C582        H587   1.082       .  S
C583        C798   1.405       .  A
C583        C584   1.407   1_554  A
C584        F585   1.356       .  S
C589        C590   1.401       .  A
C589        C594   1.397       .  A
C589        H596   1.084       .  S
C591        C592   1.398       .  A
C591        F598   1.357       .  S
C592        H597   1.084       .  S
C593        C810   1.406   1_554  A
C594        C809   1.406       .  A
C594        F595   1.356       .  S
C599        C604   1.398       .  A
C599        H606   1.083       .  S
C600        C817   1.407   1_554  A
C601        C816   1.407       .  A
C601        C602   1.398       .  A
C601        F608   1.356       .  S
C602        C603   1.401       .  A
C602        H607   1.084       .  S
C604        F605   1.356       .  S
C609        C610   1.397   1_455  A
C609        C614   1.394       .  A
C609        H616   1.083       .  S
C610       C1475   1.405       .  A
C611       C1474   1.405       .  A
C611        C612   1.405       .  A
C611        F618   1.357       .  S
C612       C1477   1.418       .  A
C612        H617   1.073       .  S
C613       C1476   1.418       .  A
C613        C614   1.419   1_655  A
C614        F615   1.347       .  S
C619       C1484   1.410       .  A
C619        C624   1.396       .  A
C619        H626   1.082       .  S
C620       C1483   1.410       .  A
C620        C621   1.406       .  A
C621        C622   1.399       .  A
C621        F628   1.357       .  S
C622       C1487   1.404       .  A
C622        H627   1.083       .  S
C623       C1486   1.404   1_455  A
C623        C624   1.403       .  A
C624        F625   1.358       .  S
C629       C1494   1.406   1_554  A
C629        C634   1.399       .  A
C629        H636   1.083       .  S
C630       C1328   1.493   1_556  S
C630       C1493   1.406   1_456  A
C630        C847   1.406       .  A
C631        C846   1.406       .  A
C631        C632   1.396       .  A
C631        F638   1.355       .  S
C632        C849   1.400   1_455  A
C632        H637   1.084       .  S
C633        C848   1.400   1_655  A
C633       C1498   1.405   1_556  A
C634       C1497   1.405   1_554  A
C634        F635   1.358       .  S
C639       C1720   1.401       .  A
C639        C644   1.397       .  A
C639        H646   1.083       .  S
C640       C1719   1.401   1_455  A
C640        C641   1.403   1_556  A
C641        C642   1.395       .  A
C641        F648   1.358       .  S
C642       C1507   1.404   1_454  A
C642        H647   1.083       .  S
C643       C1506   1.404   1_556  A
C643        C860   1.407       .  A
C644        C859   1.407       .  A
C644        F645   1.358       .  S
O649       Ni657   1.914       .  S
O649       C1523   1.280       .  A
O650       C1524   1.281   1_455  A
O651       Ni657   1.914       .  S
O651        C661   1.280       .  A
O653       C1526   1.281       .  A
O654       Ni658   1.916       .  S
O654       C1309   1.280       .  A
O655       Ni658   1.919       .  S
O655        C660   1.281       .  A
O656        C659   1.280       .  A
Ni657     Ni1306   2.392   1_455  S
Ni658     Ni1305   2.392       .  S
C659       O1513   1.280       .  A
C659        C673   1.461       .  S
C660       O1514   1.281       .  A
C660        C674   1.469       .  S
C661       O1302   1.280   1_455  A
C661        C856   1.464       .  S
C662       O1517   1.281       .  A
C662        C849   1.468       .  S
O663       Ni671   1.915       .  S
O663       C1537   1.281       .  A
O664       Ni671   1.916       .  S
O664       C1538   1.281   1_455  A
O665       Ni671   1.911       .  S
O665        C675   1.282   1_455  A
O666       Ni671   1.913       .  S
O666        C676   1.279       .  A
O667       Ni672   1.921       .  S
O667       C1540   1.282       .  A
O668       Ni672   1.921       .  S
O668       C1539   1.282       .  A
O669       Ni672   1.922       .  S
O669        C674   1.282       .  A
O670       Ni672   1.910       .  S
O670        C673   1.280       .  A
Ni671     Ni1536   2.390   1_455  S
Ni672     Ni1535   2.390       .  S
C673       O1527   1.281       .  A
C674       O1528   1.281       .  A
C675       O1532   1.282       .  A
C675        C826   1.483       .  S
C676       O1531   1.282   1_455  A
C676        C839   1.467       .  S
C677        C859   1.487       .  S
C677        C678   1.416       .  A
C677       C1546   1.414       .  A
C678        C799   1.492       .  S
C678        C679   1.417   1_565  A
C680       C1710   1.493       .  S
C680       C1545   1.419       .  A
C681        C786   1.491       .  S
C681       C1544   1.419       .  A
C682       C1541   1.414   1_455  A
C683        C836   1.488       .  S
C683        C684   1.438       .  A
C683       C1120   1.408   1_565  A
C684        C756   1.574       .  S
C685        C776   1.479       .  S
C685       C1550   1.463       .  A
C686        C829   1.572       .  S
C686       C1549   1.463       .  A
C686        C687   1.438   1_655  A
C687        C749   1.491       .  S
C687        C688   1.410       .  A
C688        C769   1.498       .  S
C688       C1115   1.408       .  A
O689       Ni697   1.916       .  S
O691       Ni697   1.918       .  S
O692        C702   1.280   1_556  A
O694       Ni698   1.917       .  S
O695       Ni698   1.916       .  S
O695        C700   1.280       .  A
O696        C699   1.281   1_565  A
C701        C806   1.466       .  S
C702        C819   1.467       .  S
O703       Ni711   1.911       .  S
O703        C713   1.280       .  A
O704       Ni711   1.919       .  S
O704        C714   1.281       .  A
O705       Ni711   1.918       .  S
O705        C715   1.281       .  A
O706       Ni711   1.918       .  S
O706        C716   1.281       .  A
O707       Ni712   1.916       .  S
O708       Ni712   1.917       .  S
O709       Ni712   1.912       .  S
O710       Ni712   1.919       .  S
C715        C766   1.467       .  S
C716        C779   1.472       .  S
O717        C727   1.280       .  A
O718       Ni725   1.917       .  S
O718        C728   1.281       .  A
O720       Ni725   1.918       .  S
O720        C730   1.281       .  A
O722       Ni726   1.916       .  S
O722        C729   1.280       .  A
O723       Ni726   1.917       .  S
O723        C728   1.281       .  A
O724        C727   1.280       .  A
Ni725      Ni726   2.392       .  S
C727        C742   1.462       .  S
C728        C741   1.468       .  S
C729        C789   1.467       .  S
C730        C796   1.468       .  S
O731       Ni739   1.921       .  S
O731        C741   1.282       .  A
O732       Ni739   1.911       .  S
O732        C742   1.280       .  A
O733       Ni739   1.920       .  S
O733        C743   1.281       .  A
O734       Ni739   1.917       .  S
O734        C744   1.281       .  A
O735       Ni740   1.913       .  S
O735        C744   1.280       .  A
O736       Ni740   1.911       .  S
O736        C743   1.282       .  A
O737       Ni740   1.915       .  S
O737        C742   1.281       .  A
O738       Ni740   1.915       .  S
O738        C741   1.280       .  A
Ni739      Ni740   2.390       .  S
C743        C759   1.483       .  S
C744        C746   1.467       .  S
C745        C746   1.403       .  A
C745        C750   1.398       .  A
C745        H752   1.083       .  S
C746        C747   1.403       .  A
C747        C748   1.395       .  A
C747        F754   1.358       .  S
C748        C749   1.412       .  A
C748        H753   1.083       .  S
C749        C750   1.405       .  A
C750        F751   1.355       .  S
C755        C756   1.417       .  A
C755        C760   1.392       .  A
C755        H762   1.064       .  S
C756        C757   1.421       .  A
C757        C758   1.406       .  A
C757        F764   1.351       .  S
C758        C759   1.402       .  A
C758        H763   1.083       .  S
C759        C760   1.399       .  A
C760        F761   1.358       .  S
C765        C766   1.402       .  A
C765        C770   1.398       .  A
C765        H772   1.083       .  S
C767        C768   1.397       .  A
C767        F774   1.357       .  S
C768        H773   1.083       .  S
C769        C770   1.407       .  A
C770        F771   1.357       .  S
C775        C780   1.398       .  A
C775        H782   1.083       .  S
C776        C777   1.412       .  A
C777        C778   1.399       .  A
C777        F784   1.357       .  S
C778        C779   1.403       .  A
C778        H783   1.083       .  S
C780        F781   1.356       .  S
C785        C790   1.397       .  A
C785        H792   1.083       .  S
C786        C787   1.404       .  A
C787        C788   1.398       .  A
C787        F794   1.354       .  S
C788        C789   1.402       .  A
C788        H793   1.083       .  S
C790        F791   1.358       .  S
C795        C796   1.403       .  A
C795        C800   1.398       .  A
C795        H802   1.084       .  S
C797        C798   1.398       .  A
C797        F804   1.358       .  S
C798        H803   1.082       .  S
C799        C800   1.407       .  A
C800        F801   1.356       .  S
C805        C806   1.401   1_556  A
C805        C810   1.397       .  A
C805        H812   1.084       .  S
C807        C808   1.398       .  A
C807        F814   1.357       .  S
C808        H813   1.084       .  S
C810        F811   1.356       .  S
C815        C820   1.398       .  A
C815        H822   1.083       .  S
C817        C818   1.398       .  A
C817        F824   1.356       .  S
C818        C819   1.401   1_556  A
C818        H823   1.084       .  S
C820        F821   1.356       .  S
C825        C826   1.397   1_455  A
C825        C830   1.394       .  A
C825        H832   1.083       .  S
C826       C1691   1.405       .  A
C827       C1690   1.405       .  A
C827        C828   1.405       .  A
C827        F834   1.357       .  S
C828       C1693   1.418       .  A
C828        H833   1.073       .  S
C829       C1692   1.418       .  A
C829        C830   1.419   1_655  A
C830        F831   1.347       .  S
C835       C1700   1.410       .  A
C835        C840   1.396       .  A
C835        H842   1.082       .  S
C836       C1699   1.410       .  A
C836        C837   1.406       .  A
C837        C838   1.399       .  A
C837        F844   1.357       .  S
C838       C1703   1.404       .  A
C838        H843   1.083       .  S
C839       C1702   1.404   1_455  A
C839        C840   1.403       .  A
C840        F841   1.358       .  S
C845       C1710   1.406       .  A
C845        C850   1.399       .  A
C845        H852   1.083       .  S
C846       C1544   1.493       .  S
C846       C1709   1.406   1_455  A
C847        C848   1.396       .  A
C847        F854   1.355       .  S
C848        H853   1.084       .  S
C849       C1714   1.405       .  A
C850       C1713   1.405       .  A
C850        F851   1.358       .  S
C855       C1504   1.401       .  A
C855        C860   1.397       .  A
C855        H862   1.083       .  S
C856       C1503   1.401   1_455  A
C856        C857   1.403       .  A
C857        C858   1.395       .  A
C857        F864   1.358       .  S
C858       C1723   1.404   1_455  A
C858        H863   1.083       .  S
C859       C1722   1.404       .  A
C860        F861   1.358       .  S
O865       Ni873   1.914   1_554  S
O866      Ni1089   1.918       .  S
O867       Ni873   1.914       .  S
O867        C877   1.280       .  A
O868      Ni1089   1.916       .  S
O868       C1094   1.280       .  A
O869      Ni1090   1.919       .  S
O870       Ni874   1.916       .  S
O871       Ni874   1.919       .  S
O871        C876   1.281       .  A
O872      Ni1090   1.913   1_554  S
O872        C875   1.280   1_655  A
Ni873      O1082   1.918       .  S
Ni873      O1084   1.916       .  S
Ni874      O1085   1.919       .  S
Ni874      O1088   1.913       .  S
C875        C889   1.461       .  S
C876        C890   1.469       .  S
C877       C1072   1.464       .  S
C878       O1084   1.280       .  A
C878       C1065   1.468       .  S
O879       Ni887   1.915       .  S
O880       Ni887   1.916       .  S
O881       Ni887   1.911       .  S
O881        C891   1.282       .  A
O882       Ni887   1.913       .  S
O882        C892   1.279       .  A
O883       Ni888   1.921       .  S
O884       Ni888   1.921       .  S
O885       Ni888   1.922       .  S
O885        C890   1.282       .  A
O886       Ni888   1.910       .  S
O886        C889   1.280   1_655  A
C891       C1042   1.483       .  S
C892       C1055   1.467       .  S
C893       C1075   1.488       .  S
C893        C894   1.416   1_556  A
C894       C1015   1.492       .  S
C894        C895   1.417       .  A
C895       C1464   1.490       .  S
C895       C1328   1.419   1_655  A
C896       C1327   1.419   1_455  A
C897       C1002   1.491       .  S
C897       C1330   1.415   1_545  A
C898       C1457   1.489       .  S
C898       C1329   1.415       .  A
C899       C1052   1.488       .  S
C899        C900   1.438   1_455  A
C900        C972   1.574       .  S
C900       C1333   1.461       .  A
C901        C992   1.479       .  S
C901       C1332   1.461   1_545  A
C902       C1045   1.572       .  S
C902        C903   1.438       .  A
C903        C965   1.490       .  S
C903        C904   1.410       .  A
C904        C985   1.498       .  S
O905       Ni913   1.916       .  S
O905       C1347   1.281       .  A
O906      Ni1129   1.914       .  S
O906       C1348   1.281   1_545  A
O907       Ni913   1.918       .  S
O907       C1133   1.281   1_545  A
O908      Ni1129   1.919       .  S
O908        C918   1.281       .  A
O909      Ni1130   1.917   1_554  S
O909       C1566   1.281       .  A
O910       Ni914   1.917       .  S
O910       C1349   1.280       .  A
O911       Ni914   1.916       .  S
O911        C916   1.280       .  A
O912      Ni1130   1.914   1_554  S
O912        C915   1.281       .  A
Ni913      O1122   1.915   1_554  S
Ni913      O1124   1.919   1_554  S
Ni913     Ni1562   2.392   1_544  S
Ni914      O1125   1.917       .  S
Ni914      O1128   1.914       .  S
Ni914     Ni1561   2.392       .  S
C915       O1337   1.281       .  A
C915       C1362   1.464       .  S
C916       O1338   1.281       .  A
C916       C1361   1.464       .  S
C917       O1123   1.281   1_565  A
C917       O1342   1.280       .  A
C917       C1022   1.466       .  S
C918       O1557   1.281   1_545  A
C918       C1035   1.467       .  S
O919       Ni927   1.911       .  S
O919        C929   1.280   1_545  A
O920       Ni927   1.919       .  S
O920        C930   1.281       .  A
O921       Ni927   1.918       .  S
O921        C931   1.281       .  A
O922       Ni927   1.918       .  S
O922        C932   1.281       .  A
O923       Ni928   1.916       .  S
O923       C1364   1.281       .  A
O924       Ni928   1.917       .  S
O924       C1363   1.280       .  A
O925       Ni928   1.912       .  S
O925       C1362   1.280       .  A
O926       Ni928   1.919       .  S
O926       C1361   1.281       .  A
Ni927     Ni1360   2.392   1_545  S
Ni928     Ni1359   2.392       .  S
C929       O1358   1.281       .  A
C929       C1348   1.464       .  S
C930       O1357   1.280   1_545  A
C930       C1347   1.464       .  S
C931       O1356   1.280   1_545  A
C931        C982   1.467   1_545  S
C932       O1355   1.281   1_545  A
C932        C995   1.472       .  S
O933      Ni1157   1.915       .  S
O933        C943   1.281       .  A
O934       Ni941   1.917       .  S
O934        C944   1.281       .  A
O935      Ni1157   1.917       .  S
O935       C1161   1.281       .  A
O936       Ni941   1.918       .  S
O936        C946   1.281       .  A
O937      Ni1158   1.918       .  S
O937       C1162   1.281       .  A
O938       Ni942   1.916       .  S
O938        C945   1.280       .  A
O939       Ni942   1.917       .  S
O939        C944   1.281       .  A
O940      Ni1158   1.913       .  S
O940        C943   1.280       .  A
Ni941      O1149   1.915   1_554  S
Ni941      O1151   1.917       .  S
Ni941      Ni942   2.392       .  S
Ni942      O1153   1.917       .  S
Ni942      O1156   1.913   1_554  S
C943        C958   1.462       .  S
C944        C957   1.468       .  S
C945       O1151   1.281       .  A
C945       C1005   1.467       .  S
C946       O1153   1.281       .  A
C946       C1012   1.468       .  S
O947       Ni955   1.921       .  S
O947        C957   1.282       .  A
O948       Ni955   1.911       .  S
O948        C958   1.280       .  A
O949       Ni955   1.920       .  S
O949        C959   1.281       .  A
O950       Ni955   1.917       .  S
O950        C960   1.281       .  A
O951       Ni956   1.913       .  S
O951        C960   1.280       .  A
O952       Ni956   1.911       .  S
O952        C959   1.282       .  A
O953       Ni956   1.915       .  S
O953        C958   1.281       .  A
O954       Ni956   1.915       .  S
O954        C957   1.280       .  A
Ni955      Ni956   2.390       .  S
C959        C975   1.483       .  S
C960        C962   1.467       .  S
C961        C962   1.403       .  A
C961        C966   1.398       .  A
C961        H968   1.083       .  S
C962        C963   1.403       .  A
C963        C964   1.395       .  A
C963        F970   1.358       .  S
C964        C965   1.412       .  A
C964        H969   1.083       .  S
C965        C966   1.405       .  A
C966        F967   1.355       .  S
C971        C972   1.416       .  A
C971        C976   1.392       .  A
C971        H978   1.064       .  S
C972        C973   1.421       .  A
C973        C974   1.406       .  A
C973        F980   1.351       .  S
C974        C975   1.402       .  A
C974        H979   1.083       .  S
C975        C976   1.399       .  A
C976        F977   1.358       .  S
C981        C982   1.402   1_545  A
C981        C986   1.398       .  A
C981        H988   1.083       .  S
C982       C1415   1.403       .  A
C983       C1414   1.403       .  A
C983        C984   1.397       .  A
C983        F990   1.357       .  S
C984       C1417   1.406       .  A
C984        H989   1.083       .  S
C985       C1416   1.406   1_545  A
C985        C986   1.407       .  A
C986        F987   1.357       .  S
C991       C1424   1.407       .  A
C991        C996   1.398       .  A
C991        H998   1.083       .  S
C992       C1423   1.407   1_545  A
C992        C993   1.412       .  A
C993        C994   1.399       .  A
C993       F1000   1.357       .  S
C994        C995   1.403       .  A
C994        H999   1.083       .  S
C995       C1428   1.406   1_545  A
C996       C1427   1.406       .  A
C996        F997   1.356       .  S
C1001      C1218   1.405       .  A
C1001      C1006   1.397       .  A
C1001      H1008   1.083       .  S
C1002      C1217   1.405   1_554  A
C1002      C1003   1.404       .  A
C1003      C1004   1.398       .  A
C1003      F1010   1.354       .  S
C1004      C1005   1.402       .  A
C1004      H1009   1.083       .  S
C1005      C1222   1.404   1_554  A
C1006      C1221   1.404       .  A
C1006      F1007   1.358       .  S
C1011      C1012   1.403   1_556  A
C1011      C1016   1.398       .  A
C1011      H1018   1.084       .  S
C1012      C1229   1.403       .  A
C1013      C1228   1.403       .  A
C1013      C1014   1.398       .  A
C1013      F1020   1.358       .  S
C1014      C1231   1.405       .  A
C1014      H1019   1.082       .  S
C1015      C1230   1.405       .  A
C1015      C1016   1.407   1_554  A
C1016      F1017   1.356       .  S
C1021      C1022   1.401       .  A
C1021      C1026   1.397       .  A
C1021      H1028   1.084       .  S
C1022      C1671   1.404   1_565  A
C1023      C1670   1.404       .  A
C1023      C1024   1.398       .  A
C1023      F1030   1.357       .  S
C1024      C1457   1.405       .  A
C1024      H1029   1.084       .  S
C1025      C1330   1.489       .  S
C1025      C1456   1.405   1_565  A
C1025      C1242   1.406   1_554  A
C1026      C1241   1.406       .  A
C1026      F1027   1.356       .  S
C1031      C1464   1.404       .  A
C1031      C1036   1.398       .  A
C1031      H1038   1.083       .  S
C1032      C1327   1.490       .  S
C1032      C1463   1.404   1_545  A
C1032      C1249   1.407   1_554  A
C1033      C1248   1.407       .  A
C1033      C1034   1.398       .  A
C1033      F1040   1.356       .  S
C1034      C1035   1.401       .  A
C1034      H1039   1.084       .  S
C1035      C1684   1.403   1_545  A
C1036      C1683   1.403       .  A
C1036      F1037   1.356       .  S
C1041      C1042   1.397       .  A
C1041      C1046   1.394       .  A
C1041      H1048   1.083       .  S
C1043      C1044   1.405       .  A
C1043      F1050   1.357       .  S
C1044      H1049   1.073       .  S
C1045      C1046   1.419       .  A
C1046      F1047   1.347       .  S
C1051      C1056   1.396       .  A
C1051      H1058   1.082       .  S
C1052      C1053   1.406   1_455  A
C1053      C1054   1.399       .  A
C1053      F1060   1.357       .  S
C1054      H1059   1.083       .  S
C1055      C1056   1.403       .  A
C1056      F1057   1.358       .  S
C1061      C1066   1.399       .  A
C1061      H1068   1.083       .  S
C1062      C1279   1.406       .  A
C1063      C1278   1.406       .  A
C1063      C1064   1.396       .  A
C1063      F1070   1.355       .  S
C1064      C1281   1.400       .  A
C1064      H1069   1.084       .  S
C1065      C1280   1.400       .  A
C1066      F1067   1.358       .  S
C1071      C1076   1.397       .  A
C1071      H1078   1.083       .  S
C1072      C1073   1.403   1_556  A
C1073      C1074   1.395       .  A
C1073      F1080   1.358       .  S
C1074      H1079   1.083       .  S
C1075      C1292   1.407       .  A
C1076      C1291   1.407       .  A
C1076      F1077   1.358       .  S
O1081     Ni1089   1.914       .  S
O1083     Ni1089   1.914       .  S
O1083      C1093   1.280       .  A
O1086     Ni1090   1.916       .  S
O1087     Ni1090   1.919       .  S
O1087      C1092   1.281       .  A
O1088      C1091   1.280   1_655  A
C1091      C1105   1.461       .  S
C1092      C1106   1.469       .  S
C1093      C1288   1.464       .  S
C1094      C1281   1.468       .  S
O1095     Ni1103   1.915       .  S
O1096     Ni1103   1.916       .  S
O1097     Ni1103   1.911       .  S
O1097      C1107   1.282       .  A
O1098     Ni1103   1.913       .  S
O1098      C1108   1.279       .  A
O1099     Ni1104   1.921       .  S
O1100     Ni1104   1.921       .  S
O1101     Ni1104   1.922       .  S
O1101      C1106   1.282       .  A
O1102     Ni1104   1.910       .  S
O1102      C1105   1.280   1_655  A
C1107      C1258   1.483       .  S
C1108      C1271   1.467       .  S
C1109      C1291   1.487       .  S
C1109      C1110   1.416       .  A
C1110      C1231   1.492       .  S
C1110      C1111   1.417       .  A
C1111      C1680   1.490       .  S
C1111      C1544   1.419   1_655  A
C1112      C1543   1.419   1_455  A
C1113      C1218   1.491       .  S
C1113      C1546   1.415   1_545  A
C1114      C1673   1.489       .  S
C1114      C1545   1.415       .  A
C1115      C1268   1.488       .  S
C1115      C1116   1.438   1_455  A
C1116      C1188   1.574       .  S
C1116      C1549   1.461       .  A
C1117      C1208   1.479       .  S
C1117      C1548   1.461   1_545  A
C1118      C1261   1.573       .  S
C1118      C1119   1.438       .  A
C1119      C1181   1.490       .  S
C1119      C1120   1.410       .  A
C1120      C1201   1.498       .  S
O1121     Ni1129   1.916       .  S
O1121      C1563   1.281       .  A
O1122      C1564   1.281   1_545  A
O1123     Ni1129   1.918       .  S
O1124      C1134   1.280   1_556  A
O1125      C1350   1.281       .  A
O1126     Ni1130   1.917       .  S
O1126      C1565   1.280   1_556  A
O1127     Ni1130   1.916       .  S
O1127      C1132   1.280       .  A
O1128      C1131   1.281       .  A
Ni1129    Ni1346   2.392   1_545  S
Ni1130    Ni1345   2.392   1_556  S
C1131      O1553   1.281       .  A
C1131      C1578   1.464       .  S
C1132      O1554   1.281       .  A
C1132      C1577   1.464       .  S
C1133      O1558   1.280   1_554  A
C1133      C1238   1.466       .  S
C1134      O1341   1.281   1_545  A
C1134      C1251   1.467       .  S
O1135     Ni1143   1.911       .  S
O1135      C1145   1.280   1_545  A
O1136     Ni1143   1.919       .  S
O1136      C1146   1.281       .  A
O1137     Ni1143   1.918       .  S
O1137      C1147   1.281       .  A
O1138     Ni1143   1.918       .  S
O1138      C1148   1.281       .  A
O1139     Ni1144   1.916       .  S
O1139      C1580   1.281       .  A
O1140     Ni1144   1.917       .  S
O1140      C1579   1.280       .  A
O1141     Ni1144   1.912       .  S
O1141      C1578   1.280       .  A
O1142     Ni1144   1.919       .  S
O1142      C1577   1.281       .  A
Ni1143    Ni1576   2.392   1_545  S
Ni1144    Ni1575   2.392       .  S
C1145      O1574   1.281       .  A
C1145      C1564   1.464       .  S
C1146      O1573   1.280   1_545  A
C1146      C1563   1.464       .  S
C1147      O1572   1.280   1_545  A
C1147      C1198   1.467   1_545  S
C1148      O1571   1.281   1_545  A
C1148      C1211   1.472       .  S
O1149      C1159   1.280       .  A
O1150     Ni1157   1.917       .  S
O1150      C1160   1.281       .  A
O1152     Ni1157   1.918       .  S
O1152      C1162   1.281       .  A
O1154     Ni1158   1.916       .  S
O1154      C1161   1.280       .  A
O1155     Ni1158   1.917       .  S
O1155      C1160   1.281       .  A
O1156      C1159   1.280       .  A
Ni1157    Ni1158   2.392       .  S
C1159      C1174   1.462       .  S
C1160      C1173   1.468       .  S
C1161      C1221   1.467       .  S
C1162      C1228   1.468       .  S
O1163     Ni1171   1.921       .  S
O1163      C1173   1.282       .  A
O1164     Ni1171   1.911       .  S
O1164      C1174   1.280       .  A
O1165     Ni1171   1.920       .  S
O1165      C1175   1.281       .  A
O1166     Ni1171   1.917       .  S
O1166      C1176   1.281       .  A
O1167     Ni1172   1.913       .  S
O1167      C1176   1.280       .  A
O1168     Ni1172   1.911       .  S
O1168      C1175   1.282       .  A
O1169     Ni1172   1.915       .  S
O1169      C1174   1.281       .  A
O1170     Ni1172   1.915       .  S
O1170      C1173   1.280       .  A
Ni1171    Ni1172   2.390       .  S
C1175      C1191   1.483       .  S
C1176      C1178   1.467       .  S
C1177      C1178   1.403       .  A
C1177      C1182   1.398       .  A
C1177      H1184   1.083       .  S
C1178      C1179   1.403       .  A
C1179      C1180   1.395       .  A
C1179      F1186   1.358       .  S
C1180      C1181   1.412       .  A
C1180      H1185   1.083       .  S
C1181      C1182   1.405       .  A
C1182      F1183   1.355       .  S
C1187      C1188   1.416       .  A
C1187      C1192   1.392       .  A
C1187      H1194   1.064       .  S
C1188      C1189   1.421       .  A
C1189      C1190   1.406       .  A
C1189      F1196   1.351       .  S
C1190      C1191   1.402       .  A
C1190      H1195   1.083       .  S
C1191      C1192   1.399       .  A
C1192      F1193   1.358       .  S
C1197      C1198   1.402   1_545  A
C1197      C1202   1.398       .  A
C1197      H1204   1.083       .  S
C1198      C1631   1.403       .  A
C1199      C1630   1.403       .  A
C1199      C1200   1.397       .  A
C1199      F1206   1.357       .  S
C1200      C1633   1.406       .  A
C1200      H1205   1.083       .  S
C1201      C1632   1.406   1_545  A
C1201      C1202   1.407       .  A
C1202      F1203   1.357       .  S
C1207      C1640   1.407       .  A
C1207      C1212   1.398       .  A
C1207      H1214   1.083       .  S
C1208      C1639   1.407   1_545  A
C1208      C1209   1.412       .  A
C1209      C1210   1.398       .  A
C1209      F1216   1.357       .  S
C1210      C1211   1.403       .  A
C1210      H1215   1.083       .  S
C1211      C1644   1.406   1_545  A
C1212      C1643   1.406       .  A
C1212      F1213   1.356       .  S
C1217      C1222   1.397       .  A
C1217      H1224   1.083       .  S
C1218      C1219   1.404       .  A
C1219      C1220   1.398       .  A
C1219      F1226   1.354       .  S
C1220      C1221   1.402       .  A
C1220      H1225   1.083       .  S
C1222      F1223   1.358       .  S
C1227      C1228   1.403       .  A
C1227      C1232   1.398       .  A
C1227      H1234   1.084       .  S
C1229      C1230   1.398       .  A
C1229      F1236   1.358       .  S
C1230      H1235   1.082       .  S
C1231      C1232   1.407       .  A
C1232      F1233   1.356       .  S
C1237      C1238   1.401   1_556  A
C1237      C1242   1.397       .  A
C1237      H1244   1.084       .  S
C1238      C1455   1.404   1_565  A
C1239      C1454   1.404       .  A
C1239      C1240   1.398       .  A
C1239      F1246   1.357       .  S
C1240      C1673   1.405       .  A
C1240      H1245   1.084       .  S
C1241      C1546   1.489       .  S
C1241      C1672   1.405   1_565  A
C1242      F1243   1.356       .  S
C1247      C1680   1.404       .  A
C1247      C1252   1.398       .  A
C1247      H1254   1.083       .  S
C1248      C1543   1.490       .  S
C1248      C1679   1.404   1_545  A
C1249      C1250   1.398       .  A
C1249      F1256   1.356       .  S
C1250      C1251   1.401   1_556  A
C1250      H1255   1.084       .  S
C1251      C1468   1.403   1_545  A
C1252      C1467   1.403       .  A
C1252      F1253   1.356       .  S
C1257      C1258   1.397       .  A
C1257      C1262   1.394       .  A
C1257      H1264   1.083       .  S
C1259      C1260   1.405       .  A
C1259      F1266   1.357       .  S
C1260      H1265   1.073       .  S
C1261      C1262   1.419       .  A
C1262      F1263   1.347       .  S
C1267      C1272   1.396       .  A
C1267      H1274   1.082       .  S
C1268      C1269   1.406   1_455  A
C1269      C1270   1.399       .  A
C1269      F1276   1.357       .  S
C1270      H1275   1.083       .  S
C1271      C1272   1.403       .  A
C1272      F1273   1.358       .  S
C1277      C1282   1.399       .  A
C1277      H1284   1.083       .  S
C1279      C1280   1.396       .  A
C1279      F1286   1.355       .  S
C1280      H1285   1.084       .  S
C1282      F1283   1.358       .  S
C1287      C1292   1.397       .  A
C1287      H1294   1.083       .  S
C1288      C1289   1.403       .  A
C1289      C1290   1.395       .  A
C1289      F1296   1.358       .  S
C1290      H1295   1.083       .  S
C1292      F1293   1.358       .  S
O1297     Ni1305   1.914   1_554  S
O1298     Ni1521   1.918       .  S
O1299     Ni1305   1.914       .  S
O1299      C1309   1.280       .  A
O1300     Ni1521   1.916       .  S
O1300      C1526   1.280       .  A
O1301     Ni1522   1.919       .  S
O1302     Ni1306   1.916       .  S
O1303     Ni1306   1.919       .  S
O1303      C1308   1.281       .  A
O1304     Ni1522   1.913   1_554  S
O1304      C1307   1.280   1_655  A
Ni1305     O1514   1.918       .  S
Ni1305     O1516   1.916       .  S
Ni1306     O1517   1.919       .  S
Ni1306     O1520   1.913       .  S
C1307      C1321   1.461       .  S
C1308      C1322   1.469       .  S
C1309      C1504   1.464       .  S
C1310      O1516   1.280       .  A
C1310      C1497   1.468       .  S
O1311     Ni1319   1.915       .  S
O1312     Ni1319   1.916       .  S
O1313     Ni1319   1.911       .  S
O1313      C1323   1.282       .  A
O1314     Ni1319   1.913       .  S
O1314      C1324   1.279       .  A
O1315     Ni1320   1.921       .  S
O1316     Ni1320   1.921       .  S
O1317     Ni1320   1.922       .  S
O1317      C1322   1.282       .  A
O1318     Ni1320   1.910       .  S
O1318      C1321   1.280   1_655  A
C1323      C1474   1.483       .  S
C1324      C1487   1.467       .  S
C1325      C1507   1.487       .  S
C1325      C1326   1.416   1_556  A
C1326      C1447   1.492       .  S
C1326      C1327   1.417   1_565  A
C1329      C1434   1.491       .  S
C1331      C1484   1.488       .  S
C1331      C1332   1.438   1_455  A
C1332      C1404   1.574       .  S
C1333      C1424   1.479       .  S
C1334      C1477   1.572       .  S
C1334      C1335   1.438       .  A
C1335      C1397   1.490       .  S
C1335      C1336   1.410       .  A
C1336      C1417   1.498       .  S
O1337     Ni1345   1.916       .  S
O1338     Ni1561   1.915       .  S
O1339     Ni1345   1.918       .  S
O1339      C1565   1.281       .  A
O1340     Ni1561   1.919       .  S
O1340      C1350   1.281       .  A
O1341     Ni1562   1.917   1_554  S
O1342     Ni1346   1.917       .  S
O1343     Ni1346   1.916       .  S
O1343      C1348   1.280       .  A
O1344     Ni1562   1.914   1_554  S
O1344      C1347   1.281   1_565  A
Ni1345     O1554   1.915   1_554  S
Ni1345     O1556   1.919   1_554  S
Ni1346     O1557   1.917       .  S
Ni1346     O1560   1.914       .  S
C1349      O1555   1.281       .  A
C1349      C1454   1.466       .  S
C1350      C1467   1.467       .  S
O1351     Ni1359   1.911       .  S
O1351      C1361   1.280       .  A
O1352     Ni1359   1.919       .  S
O1352      C1362   1.281       .  A
O1353     Ni1359   1.918       .  S
O1353      C1363   1.281       .  A
O1354     Ni1359   1.918       .  S
O1354      C1364   1.281       .  A
O1355     Ni1360   1.916       .  S
O1356     Ni1360   1.917       .  S
O1357     Ni1360   1.912       .  S
O1358     Ni1360   1.919       .  S
C1363      C1414   1.467       .  S
C1364      C1427   1.472       .  S
O1365     Ni1589   1.915       .  S
O1365      C1375   1.281       .  A
O1366     Ni1373   1.917       .  S
O1366      C1376   1.281       .  A
O1367     Ni1589   1.917       .  S
O1367      C1593   1.281       .  A
O1368     Ni1373   1.918       .  S
O1368      C1378   1.281       .  A
O1369     Ni1590   1.917       .  S
O1369      C1594   1.281       .  A
O1370     Ni1374   1.916       .  S
O1370      C1377   1.280       .  A
O1371     Ni1374   1.917       .  S
O1371      C1376   1.281       .  A
O1372     Ni1590   1.913       .  S
O1372      C1375   1.280       .  A
Ni1373     O1581   1.915   1_554  S
Ni1373     O1583   1.917       .  S
Ni1373    Ni1374   2.392       .  S
Ni1374     O1585   1.917       .  S
Ni1374     O1588   1.913   1_554  S
C1375      C1390   1.462       .  S
C1376      C1389   1.468       .  S
C1377      O1583   1.281       .  A
C1377      C1437   1.467       .  S
C1378      O1585   1.281       .  A
C1378      C1444   1.468       .  S
O1379     Ni1387   1.921       .  S
O1379      C1389   1.282       .  A
O1380     Ni1387   1.911       .  S
O1380      C1390   1.280       .  A
O1381     Ni1387   1.920       .  S
O1381      C1391   1.281       .  A
O1382     Ni1387   1.917       .  S
O1382      C1392   1.281       .  A
O1383     Ni1388   1.913       .  S
O1383      C1392   1.280       .  A
O1384     Ni1388   1.911       .  S
O1384      C1391   1.282       .  A
O1385     Ni1388   1.915       .  S
O1385      C1390   1.281       .  A
O1386     Ni1388   1.915       .  S
O1386      C1389   1.280       .  A
Ni1387    Ni1388   2.390       .  S
C1391      C1407   1.483       .  S
C1392      C1394   1.467       .  S
C1393      C1394   1.403       .  A
C1393      C1398   1.398       .  A
C1393      H1400   1.083       .  S
C1394      C1395   1.403       .  A
C1395      C1396   1.395       .  A
C1395      F1402   1.358       .  S
C1396      C1397   1.412       .  A
C1396      H1401   1.083       .  S
C1397      C1398   1.405       .  A
C1398      F1399   1.355       .  S
C1403      C1404   1.416       .  A
C1403      C1408   1.392       .  A
C1403      H1410   1.064       .  S
C1404      C1405   1.421       .  A
C1405      C1406   1.406       .  A
C1405      F1412   1.351       .  S
C1406      C1407   1.402       .  A
C1406      H1411   1.083       .  S
C1407      C1408   1.399       .  A
C1408      F1409   1.358       .  S
C1413      C1414   1.402       .  A
C1413      C1418   1.398       .  A
C1413      H1420   1.083       .  S
C1415      C1416   1.397       .  A
C1415      F1422   1.357       .  S
C1416      H1421   1.083       .  S
C1417      C1418   1.407       .  A
C1418      F1419   1.357       .  S
C1423      C1428   1.398       .  A
C1423      H1430   1.083       .  S
C1424      C1425   1.412       .  A
C1425      C1426   1.399       .  A
C1425      F1432   1.357       .  S
C1426      C1427   1.403       .  A
C1426      H1431   1.083       .  S
C1428      F1429   1.356       .  S
C1433      C1650   1.405       .  A
C1433      C1438   1.397       .  A
C1433      H1440   1.083       .  S
C1434      C1649   1.405   1_554  A
C1434      C1435   1.404       .  A
C1435      C1436   1.398       .  A
C1435      F1442   1.354       .  S
C1436      C1437   1.402       .  A
C1436      H1441   1.083       .  S
C1437      C1654   1.404   1_554  A
C1438      C1653   1.404       .  A
C1438      F1439   1.358       .  S
C1443      C1444   1.403   1_556  A
C1443      C1448   1.398       .  A
C1443      H1450   1.084       .  S
C1444      C1661   1.403       .  A
C1445      C1660   1.403       .  A
C1445      C1446   1.398       .  A
C1445      F1452   1.358       .  S
C1446      C1663   1.405       .  A
C1446      H1451   1.082       .  S
C1447      C1662   1.405       .  A
C1447      C1448   1.407   1_554  A
C1448      F1449   1.356       .  S
C1453      C1454   1.401       .  A
C1453      C1458   1.397       .  A
C1453      H1460   1.084       .  S
C1455      C1456   1.398       .  A
C1455      F1462   1.357       .  S
C1456      H1461   1.084       .  S
C1457      C1674   1.406   1_554  A
C1458      C1673   1.406       .  A
C1458      F1459   1.356       .  S
C1463      C1468   1.398       .  A
C1463      H1470   1.083       .  S
C1464      C1681   1.407   1_554  A
C1465      C1680   1.407       .  A
C1465      C1466   1.398       .  A
C1465      F1472   1.356       .  S
C1466      C1467   1.401       .  A
C1466      H1471   1.084       .  S
C1468      F1469   1.356       .  S
C1473      C1474   1.397       .  A
C1473      C1478   1.394       .  A
C1473      H1480   1.083       .  S
C1475      C1476   1.405       .  A
C1475      F1482   1.357       .  S
C1476      H1481   1.073       .  S
C1477      C1478   1.419       .  A
C1478      F1479   1.347       .  S
C1483      C1488   1.396       .  A
C1483      H1490   1.082       .  S
C1484      C1485   1.406   1_455  A
C1485      C1486   1.399       .  A
C1485      F1492   1.357       .  S
C1486      H1491   1.083       .  S
C1487      C1488   1.403       .  A
C1488      F1489   1.358       .  S
C1493      C1498   1.399       .  A
C1493      H1500   1.083       .  S
C1494      C1711   1.406       .  A
C1495      C1710   1.406       .  A
C1495      C1496   1.396       .  A
C1495      F1502   1.355       .  S
C1496      C1713   1.400       .  A
C1496      H1501   1.084       .  S
C1497      C1712   1.400       .  A
C1498      F1499   1.358       .  S
C1503      C1508   1.397       .  A
C1503      H1510   1.083       .  S
C1504      C1505   1.403   1_556  A
C1505      C1506   1.395       .  A
C1505      F1512   1.358       .  S
C1506      H1511   1.083       .  S
C1507      C1724   1.407       .  A
C1508      C1723   1.407       .  A
C1508      F1509   1.358       .  S
O1513     Ni1521   1.914       .  S
O1515     Ni1521   1.914       .  S
O1515      C1525   1.280       .  A
O1518     Ni1522   1.916       .  S
O1519     Ni1522   1.919       .  S
O1519      C1524   1.281       .  A
O1520      C1523   1.280   1_655  A
C1523      C1537   1.461       .  S
C1524      C1538   1.469       .  S
C1525      C1720   1.464       .  S
C1526      C1713   1.468       .  S
O1527     Ni1535   1.915       .  S
O1528     Ni1535   1.916       .  S
O1529     Ni1535   1.911       .  S
O1529      C1539   1.282       .  A
O1530     Ni1535   1.913       .  S
O1530      C1540   1.279       .  A
O1531     Ni1536   1.921       .  S
O1532     Ni1536   1.921       .  S
O1533     Ni1536   1.922       .  S
O1533      C1538   1.282       .  A
O1534     Ni1536   1.910       .  S
O1534      C1537   1.280   1_655  A
C1539      C1690   1.483       .  S
C1540      C1703   1.467       .  S
C1541      C1723   1.487       .  S
C1541      C1542   1.416       .  A
C1542      C1663   1.492       .  S
C1542      C1543   1.417   1_565  A
C1545      C1650   1.491       .  S
C1547      C1700   1.488       .  S
C1547      C1548   1.438   1_455  A
C1548      C1620   1.574       .  S
C1549      C1640   1.479       .  S
C1550      C1693   1.572       .  S
C1550      C1551   1.438       .  A
C1551      C1613   1.491       .  S
C1551      C1552   1.410       .  A
C1552      C1633   1.498       .  S
O1553     Ni1561   1.916       .  S
O1555     Ni1561   1.918       .  S
O1556      C1566   1.280   1_556  A
O1558     Ni1562   1.917       .  S
O1559     Ni1562   1.916       .  S
O1559      C1564   1.280       .  A
O1560      C1563   1.281   1_565  A
C1565      C1670   1.466       .  S
C1566      C1683   1.467       .  S
O1567     Ni1575   1.911       .  S
O1567      C1577   1.280       .  A
O1568     Ni1575   1.919       .  S
O1568      C1578   1.281       .  A
O1569     Ni1575   1.918       .  S
O1569      C1579   1.281       .  A
O1570     Ni1575   1.918       .  S
O1570      C1580   1.281       .  A
O1571     Ni1576   1.916       .  S
O1572     Ni1576   1.917       .  S
O1573     Ni1576   1.912       .  S
O1574     Ni1576   1.919       .  S
C1579      C1630   1.467       .  S
C1580      C1643   1.472       .  S
O1581      C1591   1.280       .  A
O1582     Ni1589   1.917       .  S
O1582      C1592   1.281       .  A
O1584     Ni1589   1.918       .  S
O1584      C1594   1.281       .  A
O1586     Ni1590   1.916       .  S
O1586      C1593   1.280       .  A
O1587     Ni1590   1.917       .  S
O1587      C1592   1.281       .  A
O1588      C1591   1.280       .  A
Ni1589    Ni1590   2.392       .  S
C1591      C1606   1.462       .  S
C1592      C1605   1.468       .  S
C1593      C1653   1.467       .  S
C1594      C1660   1.468       .  S
O1595     Ni1603   1.921       .  S
O1595      C1605   1.282       .  A
O1596     Ni1603   1.911       .  S
O1596      C1606   1.280       .  A
O1597     Ni1603   1.920       .  S
O1597      C1607   1.281       .  A
O1598     Ni1603   1.917       .  S
O1598      C1608   1.281       .  A
O1599     Ni1604   1.913       .  S
O1599      C1608   1.280       .  A
O1600     Ni1604   1.911       .  S
O1600      C1607   1.282       .  A
O1601     Ni1604   1.915       .  S
O1601      C1606   1.281       .  A
O1602     Ni1604   1.915       .  S
O1602      C1605   1.280       .  A
Ni1603    Ni1604   2.390       .  S
C1607      C1623   1.483       .  S
C1608      C1610   1.467       .  S
C1609      C1610   1.403       .  A
C1609      C1614   1.398       .  A
C1609      H1616   1.083       .  S
C1610      C1611   1.403       .  A
C1611      C1612   1.395       .  A
C1611      F1618   1.358       .  S
C1612      C1613   1.412       .  A
C1612      H1617   1.083       .  S
C1613      C1614   1.405       .  A
C1614      F1615   1.355       .  S
C1619      C1620   1.417       .  A
C1619      C1624   1.392       .  A
C1619      H1626   1.064       .  S
C1620      C1621   1.421       .  A
C1621      C1622   1.406       .  A
C1621      F1628   1.351       .  S
C1622      C1623   1.402       .  A
C1622      H1627   1.083       .  S
C1623      C1624   1.399       .  A
C1624      F1625   1.358       .  S
C1629      C1630   1.402       .  A
C1629      C1634   1.398       .  A
C1629      H1636   1.083       .  S
C1631      C1632   1.397       .  A
C1631      F1638   1.357       .  S
C1632      H1637   1.083       .  S
C1633      C1634   1.407       .  A
C1634      F1635   1.357       .  S
C1639      C1644   1.398       .  A
C1639      H1646   1.083       .  S
C1640      C1641   1.412       .  A
C1641      C1642   1.399       .  A
C1641      F1648   1.357       .  S
C1642      C1643   1.403       .  A
C1642      H1647   1.083       .  S
C1644      F1645   1.356       .  S
C1649      C1654   1.397       .  A
C1649      H1656   1.083       .  S
C1650      C1651   1.404       .  A
C1651      C1652   1.398       .  A
C1651      F1658   1.354       .  S
C1652      C1653   1.402       .  A
C1652      H1657   1.083       .  S
C1654      F1655   1.358       .  S
C1659      C1660   1.403       .  A
C1659      C1664   1.398       .  A
C1659      H1666   1.084       .  S
C1661      C1662   1.398       .  A
C1661      F1668   1.358       .  S
C1662      H1667   1.082       .  S
C1663      C1664   1.407       .  A
C1664      F1665   1.356       .  S
C1669      C1670   1.401   1_556  A
C1669      C1674   1.397       .  A
C1669      H1676   1.084       .  S
C1671      C1672   1.398       .  A
C1671      F1678   1.357       .  S
C1672      H1677   1.084       .  S
C1674      F1675   1.356       .  S
C1679      C1684   1.398       .  A
C1679      H1686   1.083       .  S
C1681      C1682   1.398       .  A
C1681      F1688   1.356       .  S
C1682      C1683   1.401   1_556  A
C1682      H1687   1.084       .  S
C1684      F1685   1.356       .  S
C1689      C1690   1.397       .  A
C1689      C1694   1.394       .  A
C1689      H1696   1.083       .  S
C1691      C1692   1.405       .  A
C1691      F1698   1.357       .  S
C1692      H1697   1.073       .  S
C1693      C1694   1.419       .  A
C1694      F1695   1.347       .  S
C1699      C1704   1.396       .  A
C1699      H1706   1.082       .  S
C1700      C1701   1.406   1_455  A
C1701      C1702   1.399       .  A
C1701      F1708   1.357       .  S
C1702      H1707   1.083       .  S
C1703      C1704   1.403       .  A
C1704      F1705   1.358       .  S
C1709      C1714   1.399       .  A
C1709      H1716   1.083       .  S
C1711      C1712   1.396       .  A
C1711      F1718   1.355       .  S
C1712      H1717   1.084       .  S
C1714      F1715   1.358       .  S
C1719      C1724   1.397       .  A
C1719      H1726   1.083       .  S
C1720      C1721   1.403       .  A
C1721      C1722   1.395       .  A
C1721      F1728   1.358       .  S
C1722      H1727   1.083       .  S
C1724      F1725   1.358       .  S
