geometry optimzed in LAMMPS
_audit_creation_date              2020-12-01 
_audit_creation_method            'lammps2cif' 
_symmetry_space_group_name_H-M    'P1' 
_symmetry_Int_Tables_number       1 
_symmetry_cell_setting            triclinic 
loop_ 
_symmetry_equiv_pos_as_xyz 
  x,y,z 
_cell_length_a                    55.24755067 
_cell_length_b                    55.56336870082574 
_cell_length_c                    55.18193082030982 
_cell_angle_alpha                 88.63700041585719 
_cell_angle_beta                  91.25116099273295 
_cell_angle_gamma                 91.6004131719087 
loop_ 
_atom_site_label 
_atom_site_type_symbol 
_atom_site_fract_x 
_atom_site_fract_y 
_atom_site_fract_z 
_atom_site_charge 
N1          N  0.80343799  0.20114032  0.00184482    -0.03300
C2          C  0.81726430  0.19487251  0.98271698    -0.00700
C3          C  0.82030491  0.17025279  0.98289429    -0.23600
C4          C  0.80915946  0.16091595  0.00292830    -0.23800
C5          C  0.79925659  0.17994026  0.01446017    -0.00800
H6          H  0.83063372  0.16025270  0.97028533     0.13000
H7          H  0.80955474  0.14235415  0.00931029     0.13000
N8          N  0.74595394  0.28609980  0.00004622    -0.03300
C9          C  0.73312921  0.29166330  0.97924850    -0.00700
C10         C  0.73019108  0.31617572  0.97700112    -0.23600
C11         C  0.74107611  0.32625564  0.99691825    -0.23800
C12         C  0.75039227  0.30768668  0.01102919    -0.00800
H13         H  0.71968625  0.32554234  0.96313498     0.13000
H14         H  0.73988769  0.34489529  0.00194221     0.13000
N15         N  0.79781042  0.00090964  0.23407977    -0.03300
C16         C  0.80315278  0.01953531  0.21812986    -0.00700
C17         C  0.82705758  0.01895521  0.21143662    -0.23600
C18         C  0.83696017  0.99962864  0.22312291    -0.23800
C19         C  0.81901092  0.98882849  0.23696856    -0.00800
H20         H  0.83606892  0.03085237  0.19845992     0.13000
H21         H  0.85488104  0.99298902  0.22024208     0.13000
N22         N  0.71565486  0.99631826  0.29692189    -0.03300
C23         C  0.69425562  0.98351227  0.29472872    -0.00700
C24         C  0.67759145  0.99163332  0.31070597    -0.23600
C25         C  0.68867440  0.00988011  0.32321003    -0.23800
C26         C  0.71204448  0.01228611  0.31495529    -0.00800
H27         H  0.65970404  0.98399144  0.31405840     0.13000
H28         H  0.68049220  0.02041217  0.33694111     0.13000
O29         O  0.77336473  0.30856536  0.35020203    -0.74300
O30         O  0.78331598  0.37637713  0.35083425    -0.74300
O31         O  0.78143468  0.33979164  0.38547950    -0.74400
O32         O  0.77506362  0.34421051  0.31636485    -0.74400
O33         O  0.73509902  0.34760150  0.31935920    -0.74300
O34         O  0.74195453  0.34568467  0.38879115    -0.74300
O35         O  0.74374870  0.38169870  0.35233983    -0.74300
O36         O  0.73374463  0.31278938  0.35443643    -0.74400
Ni37       Ni  0.77969002  0.34224387  0.35076984     1.25400
Ni38       Ni  0.73719739  0.34729826  0.35404164     1.25400
C39         C  0.75203904  0.29935285  0.35236050     0.87900
C40         C  0.76529989  0.39027315  0.34899927     0.87800
C41         C  0.76241662  0.33985177  0.39834264     0.87900
C42         C  0.75401864  0.34630451  0.30652504     0.88000
O43         O  0.76732964  0.34577679  0.19103939    -0.74300
O44         O  0.76660308  0.34599988  0.12143783    -0.74300
O45         O  0.76163520  0.38058992  0.15751746    -0.74400
O46         O  0.77189333  0.31224532  0.15638401    -0.74400
O47         O  0.73205777  0.30560367  0.15613316    -0.74300
O48         O  0.72182826  0.37295000  0.15697467    -0.74300
O49         O  0.72681821  0.33893534  0.12129881    -0.74300
O50         O  0.72744717  0.33857014  0.19080113    -0.74400
Ni51       Ni  0.76830672  0.34659172  0.15638405     1.25400
Ni52       Ni  0.72564502  0.33895740  0.15609245     1.25400
C53         C  0.74749130  0.34229352  0.20236017     0.87900
C54         C  0.74697237  0.33958563  0.11017315     0.87800
C55         C  0.73992169  0.38744038  0.16056417     0.87900
C56         C  0.75348468  0.29762383  0.15609581     0.88000
O57         O  0.74705572  0.14897348  0.18905820    -0.74300
O58         O  0.75890737  0.14562804  0.12112905    -0.74300
O59         O  0.75555475  0.11265809  0.15992870    -0.74400
O60         O  0.75020342  0.18093439  0.15165521    -0.74400
O61         O  0.78964910  0.18613950  0.15955479    -0.74300
O62         O  0.79525193  0.11777437  0.16701958    -0.74300
O63         O  0.79839754  0.15121964  0.12862659    -0.74300
O64         O  0.78654551  0.15365136  0.19658248    -0.74400
Ni65       Ni  0.75158161  0.14670873  0.15497618     1.25400
Ni66       Ni  0.79393187  0.15217788  0.16300895     1.25400
C67         C  0.76478698  0.15173004  0.20411886     0.87900
C68         C  0.78035655  0.15027480  0.11360404     0.87800
C69         C  0.77593761  0.10443159  0.16723428     0.87900
C70         C  0.76885418  0.19484564  0.15475777     0.88000
O71         O  0.72608875  0.18514605  0.35084335    -0.74300
O72         O  0.72171780  0.11645930  0.34817726    -0.74300
O73         O  0.71867040  0.15062243  0.38434228    -0.74400
O74         O  0.72952632  0.15261855  0.31597328    -0.74400
O75         O  0.76914106  0.15031144  0.32316566    -0.74300
O76         O  0.75837649  0.14848130  0.39150579    -0.74300
O77         O  0.76146132  0.11414415  0.35541229    -0.74300
O78         O  0.76589495  0.18322945  0.35782720    -0.74400
Ni79       Ni  0.72254700  0.15101626  0.34977171     1.25400
Ni80       Ni  0.76509547  0.14876024  0.35743361     1.25400
C81         C  0.74679463  0.19548856  0.35422244     0.87900
C82         C  0.74108797  0.10426320  0.34912307     0.87800
C83         C  0.73699219  0.15194638  0.39902353     0.87900
C84         C  0.75122942  0.15222548  0.30824718     0.88000
N85         N  0.77669489  0.28831533  0.51000123    -0.03300
C86         C  0.79212600  0.29264503  0.52927053    -0.00700
C87         C  0.79853119  0.31682799  0.52999108    -0.23600
C88         C  0.78715834  0.32788786  0.51072324    -0.23800
C89         C  0.77396486  0.31023606  0.49864893    -0.00800
H90         H  0.81135278  0.32528008  0.54247059     0.13000
H91         H  0.78984546  0.34650879  0.50495374     0.13000
N92         N  0.71332765  0.20441229  0.50719765    -0.03300
C93         C  0.71630187  0.18351099  0.49506243    -0.00700
C94         C  0.70371575  0.16459331  0.50597912    -0.23600
C95         C  0.69220987  0.17371458  0.52519318    -0.23800
C96         C  0.69769627  0.19815214  0.52546706    -0.00800
H97         H  0.70199121  0.14628829  0.49974005     0.13000
H98         H  0.68033877  0.16366707  0.53733318     0.13000
O99         O  0.84858609  0.81188078  0.22200554    -0.74300
O100        O  0.84554433  0.88023510  0.22355586    -0.74300
O101        O  0.88094809  0.84733142  0.21422620    -0.74400
O102        O  0.81446420  0.84355969  0.23122691    -0.74400
O103        O  0.82487472  0.84253126  0.27038801    -0.74300
O104        O  0.89219103  0.84595888  0.25312723    -0.74300
O105        O  0.85619052  0.87967665  0.26269030    -0.74300
O106        O  0.85966559  0.81067478  0.26101769    -0.74400
Ni107      Ni  0.84718538  0.84603838  0.22140048     1.25400
Ni108      Ni  0.85879016  0.84496422  0.26324463     1.25400
C109        C  0.85495020  0.79998070  0.24105394     0.87900
C110        C  0.84760508  0.89082209  0.24386713     0.87800
C111        C  0.89717626  0.84350860  0.23069183     0.87900
C112        C  0.80855943  0.84212700  0.25351803     0.88000
O113        O  0.69064860  0.84326771  0.25054859    -0.74300
O114        O  0.62197030  0.84128695  0.25940152    -0.74300
O115        O  0.65830944  0.87709135  0.25876512    -0.74400
O116        O  0.65557387  0.80878196  0.25082918    -0.74400
O117        O  0.66091808  0.80304022  0.29069959    -0.74300
O118        O  0.66516413  0.87130665  0.29836257    -0.74300
O119        O  0.62819560  0.83637015  0.29908535    -0.74300
O120        O  0.69680030  0.83684298  0.29012833    -0.74400
Ni121      Ni  0.65622655  0.84298564  0.25351512     1.25400
Ni122      Ni  0.66278991  0.83688898  0.29603370     1.25400
C123        C  0.70503294  0.83968197  0.26870501     0.87900
C124        C  0.61376235  0.83630979  0.28057981     0.87800
C125        C  0.66469652  0.88527073  0.27953188     0.87900
C126        C  0.65805847  0.79472903  0.26937820     0.88000
O127        O  0.85692878  0.69017061  0.26891703    -0.74300
O128        O  0.84882056  0.62361799  0.28399129    -0.74300
O129        O  0.88772842  0.65569866  0.28026623    -0.74400
O130        O  0.81894210  0.65909493  0.27185516    -0.74400
O131        O  0.82205487  0.65041073  0.23283130    -0.74300
O132        O  0.89098765  0.64730289  0.24134076    -0.74300
O133        O  0.85127670  0.61456798  0.24508306    -0.74300
O134        O  0.86005036  0.68241050  0.22964977    -0.74400
Ni135      Ni  0.85314391  0.65726131  0.27763071     1.25400
Ni136      Ni  0.85644364  0.64821445  0.23581450     1.25400
C137        C  0.85992219  0.69732310  0.24705177     0.87900
C138        C  0.84557864  0.60863957  0.26693520     0.87800
C139        C  0.90086561  0.65330830  0.26167762     0.87900
C140        C  0.80913839  0.65470887  0.25110046     0.88000
O141        O  0.69343864  0.64500691  0.26740012    -0.74300
O142        O  0.62387377  0.64527370  0.26537263    -0.74300
O143        O  0.65927873  0.61015034  0.26101509    -0.74400
O144        O  0.65943422  0.67832085  0.27136778    -0.74400
O145        O  0.66094719  0.68514326  0.23147450    -0.74300
O146        O  0.65869145  0.61753479  0.22128870    -0.74300
O147        O  0.62474408  0.65303651  0.22567930    -0.74300
O148        O  0.69393536  0.65096246  0.22725525    -0.74400
Ni149      Ni  0.65878367  0.64416877  0.26771354     1.25400
Ni150      Ni  0.65940481  0.65167050  0.22500293     1.25400
C151        C  0.70500523  0.64855325  0.24772748     0.87900
C152        C  0.61325421  0.65232303  0.24562160     0.87800
C153        C  0.66141027  0.60277588  0.23931251     0.87900
C154        C  0.66060377  0.69290620  0.25305982     0.88000
N155        N  0.78426543  0.50147289  0.29396990    -0.03300
C156        C  0.78152151  0.48912424  0.31573099    -0.00700
C157        C  0.79417545  0.50065566  0.33414721    -0.23600
C158        C  0.80576478  0.52008895  0.32403901    -0.23800
C159        C  0.79959371  0.52046603  0.29969539    -0.00800
H160        H  0.79634430  0.49433763  0.35276407     0.13000
H161        H  0.81740593  0.53293285  0.33349288     0.13000
N162        N  0.71301518  0.49353628  0.21590595    -0.03300
C163        C  0.69318765  0.50800322  0.21327917    -0.00700
C164        C  0.67593263  0.49792513  0.19784672    -0.23600
C165        C  0.68487027  0.47700871  0.19010859    -0.23800
C166        C  0.70722348  0.47441164  0.20129328    -0.00800
H167        H  0.65890042  0.50561849  0.19207964     0.13000
H168        H  0.67600763  0.46479229  0.17751814     0.13000
N169        N  0.00510126  0.78927466  0.20447611    -0.03300
C170        C  0.98721905  0.80538842  0.19905331    -0.00700
C171        C  0.99065707  0.81630691  0.17664433    -0.23600
C172        C  0.01086445  0.80699827  0.16746079    -0.23800
C173        C  0.01967778  0.79066274  0.18446544    -0.00800
H174        H  0.97928577  0.82955282  0.16775228     0.13000
H175        H  0.01898159  0.81227909  0.15039026     0.13000
N176        N  0.00866842  0.71057393  0.27450620    -0.03300
C177        C  0.02903824  0.70443412  0.28766768    -0.00700
C178        C  0.03569821  0.68138150  0.28228093    -0.23600
C179        C  0.01785551  0.67191437  0.26766964    -0.23800
C180        C  0.00089053  0.68946318  0.26413822    -0.00800
H181        H  0.05045978  0.67146382  0.29050358     0.13000
H182        H  0.01558888  0.65306012  0.26338111     0.13000
N183        N  0.22704218  0.78194889  0.00738092    -0.03300
C184        C  0.20648397  0.78218054  0.02066507    -0.00700
C185        C  0.19274446  0.80175939  0.01419248    -0.23600
C186        C  0.20482028  0.81411131  0.99631257    -0.23800
C187        C  0.22574543  0.80185256  0.99237034    -0.00800
H188        H  0.17603513  0.80692420  0.02226460     0.13000
H189        H  0.19867659  0.83009127  0.98669422     0.13000
N190        N  0.29656573  0.70617559  0.00646770    -0.03300
C191        C  0.29975333  0.68848618  0.98999134    -0.00700
C192        C  0.32032498  0.67580713  0.99567736    -0.23600
C193        C  0.33044016  0.68562695  0.01602099    -0.23800
C194        C  0.31580085  0.70405662  0.02231945    -0.00800
H195        H  0.32729279  0.66095244  0.98584424     0.13000
H196        H  0.34636551  0.67942775  0.02581059     0.13000
O197        O  0.31487973  0.73130141  0.36083268    -0.74300
O198        O  0.38409484  0.74216118  0.35958920    -0.74300
O199        O  0.34811835  0.74308795  0.39500026    -0.74400
O200        O  0.34952923  0.73025984  0.32704969    -0.74400
O201        O  0.34444637  0.76918574  0.31863945    -0.74300
O202        O  0.34261355  0.78193796  0.38598307    -0.74300
O203        O  0.37834504  0.78108620  0.35125347    -0.74300
O204        O  0.30986639  0.77020855  0.35202962    -0.74400
Ni205      Ni  0.34958352  0.73533355  0.36117390     1.25400
Ni206      Ni  0.34384079  0.77700701  0.35189686     1.25400
C207        C  0.30100783  0.74904858  0.35631671     0.87900
C208        C  0.39216543  0.76295939  0.35237423     0.87800
C209        C  0.34214692  0.76417747  0.40119697     0.87900
C210        C  0.34695631  0.74766728  0.31166115     0.88000
O211        O  0.15054136  0.71716943  0.31966037    -0.74300
O212        O  0.15243947  0.71877063  0.38871656    -0.74300
O213        O  0.11633461  0.71569823  0.35330859    -0.74400
O214        O  0.18574509  0.72051470  0.35435685    -0.74400
O215        O  0.18367478  0.76043160  0.35200626    -0.74300
O216        O  0.11440710  0.75565922  0.35221918    -0.74300
O217        O  0.15154368  0.75891154  0.38734660    -0.74300
O218        O  0.14799606  0.75711359  0.31785291    -0.74400
Ni219      Ni  0.15113045  0.71661799  0.35422671     1.25400
Ni220      Ni  0.14912479  0.75945976  0.35244420     1.25400
C221        C  0.14920482  0.73686372  0.30733336     0.87900
C222        C  0.15508660  0.73907605  0.39904744     0.87800
C223        C  0.10406972  0.73485059  0.35016212     0.87900
C224        C  0.19618674  0.74141063  0.35360130     0.88000
O225        O  0.16182314  0.76438375  0.19589242    -0.74300
O226        O  0.17235025  0.77524795  0.12853965    -0.74300
O227        O  0.13397480  0.77951486  0.15916172    -0.74400
O228        O  0.19924607  0.75998227  0.16610868    -0.74400
O229        O  0.18793661  0.72218721  0.15779833    -0.74300
O230        O  0.12146777  0.74179655  0.15327213    -0.74300
O231        O  0.15975768  0.73775357  0.12076831    -0.74300
O232        O  0.15096085  0.72609640  0.18917376    -0.74400
Ni233      Ni  0.16712734  0.77111201  0.16249407     1.25400
Ni234      Ni  0.15443132  0.73059687  0.15478446     1.25400
C235        C  0.15460509  0.74361711  0.20361574     0.87900
C236        C  0.17004957  0.75773597  0.11396453     0.87800
C237        C  0.11671974  0.76374568  0.15781605     0.87900
C238        C  0.20448464  0.73804052  0.16279922     0.88000
O239        O  0.31982926  0.74701179  0.16082626    -0.74300
O240        O  0.38925614  0.74613479  0.16444223    -0.74300
O241        O  0.35408022  0.74416094  0.12728723    -0.74400
O242        O  0.35386798  0.74911863  0.19607744    -0.74400
O243        O  0.35225604  0.70912277  0.20048020    -0.74300
O244        O  0.35130883  0.70415426  0.13140545    -0.74300
O245        O  0.38707020  0.70604047  0.16780369    -0.74300
O246        O  0.31776820  0.70696527  0.16523571    -0.74400
Ni247      Ni  0.35452310  0.74800591  0.16176036     1.25400
Ni248      Ni  0.35228207  0.70510429  0.16613932     1.25400
C249        C  0.30748264  0.72727029  0.16331818     0.87900
C250        C  0.39918723  0.72598030  0.16938296     0.87800
C251        C  0.35006351  0.72341099  0.11819151     0.87900
C252        C  0.35264797  0.73010387  0.20957668     0.88000
N253        N  0.49909603  0.78800094  0.29325379    -0.03300
C254        C  0.47961101  0.79414525  0.30653634    -0.00700
C255        C  0.48075443  0.81837722  0.31152062    -0.23600
C256        C  0.50139693  0.82770280  0.30133733    -0.23800
C257        C  0.51242698  0.80894854  0.29039633    -0.00800
H258        H  0.46820771  0.82807021  0.32220140     0.13000
H259        H  0.50860907  0.84588763  0.30326817     0.13000
N260        N  0.50196170  0.70244604  0.23675985    -0.03300
C261        C  0.48307846  0.69624956  0.22144514    -0.00700
C262        C  0.48365660  0.67213847  0.21612327    -0.23600
C263        C  0.50327901  0.66297522  0.22824331    -0.23800
C264        C  0.51441373  0.68170922  0.24061449    -0.00800
H265        H  0.47159674  0.66247867  0.20380327     0.13000
H266        H  0.51001653  0.64500681  0.22646117     0.13000
O267        O  0.23580038  0.83701041  0.81611477    -0.74300
O268        O  0.23229362  0.83325409  0.88518890    -0.74300
O269        O  0.23100594  0.86992950  0.84982856    -0.74400
O270        O  0.23683472  0.80144460  0.84998950    -0.74400
O271        O  0.27680353  0.80598394  0.85358336    -0.74300
O272        O  0.27108420  0.87484120  0.85256811    -0.74300
O273        O  0.27241074  0.83840437  0.88844987    -0.74300
O274        O  0.27592889  0.84135521  0.81924672    -0.74400
Ni275      Ni  0.23254452  0.83541713  0.85039505     1.25400
Ni276      Ni  0.27548063  0.84044112  0.85377508     1.25400
C277        C  0.25648880  0.83993326  0.80631491     0.87900
C278        C  0.25194563  0.83315421  0.89798153     0.87800
C279        C  0.25007368  0.88353149  0.84832903     0.87900
C280        C  0.25783620  0.79229717  0.85160076     0.88000
O281        O  0.23745162  0.81310457  0.65622508    -0.74300
O282        O  0.24335366  0.88218652  0.65513937    -0.74300
O283        O  0.24162191  0.84645478  0.62023542    -0.74400
O284        O  0.23870311  0.84764443  0.68941040    -0.74400
O285        O  0.27892785  0.84590009  0.69226062    -0.74300
O286        O  0.28171229  0.84321824  0.62323985    -0.74300
O287        O  0.28342131  0.87952327  0.65710168    -0.74300
O288        O  0.27746963  0.81094978  0.65974342    -0.74400
Ni289      Ni  0.23884727  0.84763340  0.65490397     1.25400
Ni290      Ni  0.28181867  0.84503078  0.65793751     1.25400
C291        C  0.25654927  0.80059927  0.65894143     0.87900
C292        C  0.26441159  0.89200699  0.65873519     0.87800
C293        C  0.26194090  0.84219498  0.61066601     0.87900
C294        C  0.25822765  0.84634368  0.70217183     0.88000
O295        O  0.28422445  0.64526272  0.81622920    -0.74300
O296        O  0.29497173  0.64812266  0.88485381    -0.74300
O297        O  0.29517603  0.61225020  0.85011749    -0.74400
O298        O  0.28464218  0.67962698  0.84965684    -0.74400
O299        O  0.24554432  0.67302985  0.85672198    -0.74300
O300        O  0.25571585  0.60445666  0.85447060    -0.74300
O301        O  0.25588999  0.63951801  0.89084839    -0.74300
O302        O  0.24470391  0.63923921  0.82222182    -0.74400
Ni303      Ni  0.29118049  0.64631039  0.85024680     1.25400
Ni304      Ni  0.24907854  0.63854683  0.85652895     1.25400
C305        C  0.26250285  0.64250230  0.80800433     0.87900
C306        C  0.27662672  0.64715446  0.89874537     0.87800
C307        C  0.27690844  0.59758753  0.84892863     0.87900
C308        C  0.26358021  0.68767135  0.85314552     0.88000
O309        O  0.26359103  0.68412462  0.65732409    -0.74300
O310        O  0.25879282  0.61511339  0.65652420    -0.74300
O311        O  0.25609783  0.65229411  0.62187910    -0.74400
O312        O  0.26637860  0.64784374  0.69055538    -0.74400
O313        O  0.22661302  0.64937742  0.69598137    -0.74300
O314        O  0.21637943  0.65465353  0.62727788    -0.74300
O315        O  0.21897862  0.61715262  0.66171652    -0.74300
O316        O  0.22400205  0.68576432  0.66305793    -0.74400
Ni317      Ni  0.26260030  0.64967917  0.65615400     1.25400
Ni318      Ni  0.22003100  0.65164082  0.66194867     1.25400
C319        C  0.24465859  0.69636834  0.66074596     0.87900
C320        C  0.23839120  0.60503110  0.66186873     0.87800
C321        C  0.23476775  0.65640724  0.61349243     0.87900
C322        C  0.24822531  0.64757452  0.70454205     0.88000
N323        N  0.27853170  0.79452439  0.50064800    -0.03300
C324        C  0.27809718  0.81546254  0.51316271    -0.00700
C325        C  0.29554136  0.83171053  0.50475576    -0.23600
C326        C  0.30746009  0.82068374  0.48688455    -0.23800
C327        C  0.29704818  0.79797643  0.48478906    -0.00800
H328        H  0.30022717  0.84918238  0.51205733     0.13000
H329        H  0.32245178  0.82826729  0.47665656     0.13000
N330        N  0.21837272  0.70815223  0.50148516    -0.03300
C331        C  0.21864335  0.68645442  0.51388340    -0.00700
C332        C  0.20206710  0.67040650  0.50361047    -0.23600
C333        C  0.19109156  0.68211970  0.48457548    -0.23800
C334        C  0.20099891  0.70515308  0.48370322    -0.00800
H335        H  0.19686667  0.65268082  0.51057830     0.13000
H336        H  0.17658375  0.67494645  0.47313395     0.13000
O337        O  0.86543863  0.25407078  0.81550076    -0.74300
O338        O  0.86525061  0.24908605  0.88501680    -0.74300
O339        O  0.90040191  0.24718664  0.84909548    -0.74400
O340        O  0.83180424  0.25576127  0.84976492    -0.74400
O341        O  0.82540313  0.21617602  0.84777865    -0.74300
O342        O  0.89366315  0.20754880  0.84678682    -0.74300
O343        O  0.85911544  0.20937207  0.88263530    -0.74300
O344        O  0.85906389  0.21431953  0.81328666    -0.74400
Ni345      Ni  0.86617213  0.25291791  0.85015476     1.25400
Ni346      Ni  0.85928799  0.21041641  0.84777562     1.25400
C347        C  0.86179420  0.23509573  0.80308385     0.87900
C348        C  0.85971643  0.22863765  0.89500541     0.87800
C349        C  0.90787106  0.22609167  0.84479449     0.87900
C350        C  0.81725094  0.23747608  0.84866049     0.88000
O351        O  0.66159077  0.23243479  0.82220414    -0.74300
O352        O  0.66826141  0.23885177  0.89133286    -0.74300
O353        O  0.62982708  0.24124088  0.85653616    -0.74400
O354        O  0.69822156  0.23011922  0.85538001    -0.74400
O355        O  0.70538868  0.26948258  0.85076519    -0.74300
O356        O  0.63754550  0.28056009  0.85101299    -0.74300
O357        O  0.67485680  0.27837002  0.88594533    -0.74300
O358        O  0.66934390  0.27169373  0.81731156    -0.74400
Ni359      Ni  0.66397315  0.23427007  0.85682390     1.25400
Ni360      Ni  0.67184470  0.27643087  0.85134142     1.25400
C361        C  0.66474184  0.25104698  0.80831962     0.87900
C362        C  0.67548723  0.25933756  0.89948304     0.87800
C363        C  0.62272705  0.26241839  0.85054997     0.87900
C364        C  0.71311507  0.24799044  0.85262605     0.88000
O365        O  0.81762361  0.26483120  0.65617024    -0.74300
O366        O  0.88658069  0.27257404  0.65656986    -0.74300
O367        O  0.84972510  0.27328484  0.62139758    -0.74400
O368        O  0.85326080  0.26403874  0.69012754    -0.74400
O369        O  0.85761046  0.22462606  0.68562121    -0.74300
O370        O  0.85186740  0.23365032  0.61662848    -0.74300
O371        O  0.89023935  0.23327302  0.65116268    -0.74300
O372        O  0.82070763  0.22527087  0.65244059    -0.74400
Ni373      Ni  0.85188012  0.27009312  0.65602490     1.25400
Ni374      Ni  0.85544024  0.22780147  0.65107495     1.25400
C375        C  0.80768520  0.24382040  0.65453352     0.87900
C376        C  0.89968333  0.25391371  0.65657666     0.87800
C377        C  0.84719748  0.25473048  0.60814457     0.87900
C378        C  0.85617138  0.24287397  0.69917133     0.88000
O379        O  0.69226003  0.21778878  0.65992412    -0.74300
O380        O  0.62306916  0.21280707  0.66197553    -0.74300
O381        O  0.65748424  0.21306117  0.62573944    -0.74400
O382        O  0.65882935  0.21777649  0.69500271    -0.74400
O383        O  0.65685030  0.25766506  0.69109514    -0.74300
O384        O  0.65550527  0.25299091  0.62184736    -0.74300
O385        O  0.62079521  0.25276690  0.65868086    -0.74300
O386        O  0.69023076  0.25766868  0.65628487    -0.74400
Ni387      Ni  0.65778122  0.21392512  0.66058429     1.25400
Ni388      Ni  0.65556203  0.25667392  0.65658173     1.25400
C389        C  0.70270356  0.23858907  0.65805321     0.87900
C390        C  0.61102519  0.23205566  0.66363304     0.87800
C391        C  0.65884027  0.23239889  0.61261160     0.87900
C392        C  0.65815710  0.23856352  0.70444833     0.88000
N393        N  0.51698302  0.28816924  0.78732610    -0.03300
C394        C  0.50283321  0.30806151  0.78685733    -0.00700
C395        C  0.51212321  0.32502653  0.80266665    -0.23600
C396        C  0.53217995  0.31547645  0.81371640    -0.23800
C397        C  0.53473178  0.29289490  0.80440952    -0.00800
H398        H  0.50427399  0.34206416  0.80672560     0.13000
H399        H  0.54352620  0.32390583  0.82751368     0.13000
N400        N  0.51394651  0.20026141  0.73411183    -0.03300
C401        C  0.53212887  0.19578984  0.71848701    -0.00700
C402        C  0.53203089  0.17162637  0.71316921    -0.23600
C403        C  0.51312294  0.16080868  0.72514715    -0.23800
C404        C  0.50192791  0.17856280  0.73753664    -0.00800
H405        H  0.54361168  0.16305337  0.70057023     0.13000
H406        H  0.50666681  0.14239619  0.72296351     0.13000
N407        N  0.22920006  0.99530433  0.80031960    -0.03300
C408        C  0.21373346  0.01286012  0.80659301    -0.00700
C409        C  0.21018056  0.01184897  0.83133270    -0.23600
C410        C  0.22305527  0.99289927  0.84057114    -0.23800
C411        C  0.23444802  0.98288376  0.82136054    -0.00800
H412        H  0.19866430  0.02320726  0.84147984     0.13000
H413        H  0.22274200  0.98604895  0.85909321     0.13000
N414        N  0.28025858  0.00113316  0.71083249    -0.03300
C415        C  0.27318970  0.99089737  0.68941982    -0.00700
C416        C  0.28084131  0.00503101  0.67001764    -0.23600
C417        C  0.29320948  0.02442431  0.67937759    -0.23800
C418        C  0.29316878  0.02157965  0.70433367    -0.00800
H419        H  0.27966522  0.00048993  0.65105334     0.13000
H420        H  0.30288050  0.03826307  0.66903928     0.13000
N421        N  0.01129053  0.19986230  0.78532270    -0.03300
C422        C  0.02664475  0.18113105  0.78908663    -0.00700
C423        C  0.02215924  0.16943348  0.81092953    -0.23600
C424        C  0.00380543  0.18111889  0.82133542    -0.23800
C425        C  0.99747810  0.19964780  0.80558167    -0.00800
H426        H  0.03185417  0.15439336  0.81881297     0.13000
H427        H  0.99545617  0.17628552  0.83840211     0.13000
N428        N  0.01314658  0.26988769  0.70643856    -0.03300
C429        C  0.99995833  0.26950401  0.68512167    -0.00700
C430        C  0.00966979  0.28582077  0.66849699    -0.23600
C431        C  0.02941592  0.29657066  0.67942353    -0.23800
C432        C  0.03133251  0.28672710  0.70256003    -0.00800
H433        H  0.00217056  0.29060519  0.65080426     0.13000
H434        H  0.04089918  0.31066145  0.67155747     0.13000
O435        O  0.32452752  0.33850396  0.77218081    -0.74300
O436        O  0.39303939  0.34112366  0.78207850    -0.74300
O437        O  0.35610859  0.37462145  0.78077732    -0.74400
O438        O  0.35992439  0.30646041  0.77326656    -0.74400
O439        O  0.36450850  0.31187888  0.73356891    -0.74300
O440        O  0.36147144  0.38051671  0.74115518    -0.74300
O441        O  0.39830153  0.34629016  0.74241849    -0.74300
O442        O  0.32905656  0.34445011  0.73254295    -0.74400
Ni443      Ni  0.35844516  0.34022194  0.77848489     1.25400
Ni444      Ni  0.36370551  0.34624448  0.73601673     1.25400
C445        C  0.31537589  0.34073397  0.75078555     0.87900
C446        C  0.40684313  0.34113575  0.76369164     0.87800
C447        C  0.35579627  0.38851127  0.76187398     0.87900
C448        C  0.36250882  0.29782720  0.75222923     0.88000
O449        O  0.15531755  0.17236029  0.73127191    -0.74300
O450        O  0.16281445  0.10415832  0.74392430    -0.74300
O451        O  0.12426687  0.13637813  0.74409230    -0.74400
O452        O  0.19188162  0.14160998  0.73038537    -0.74400
O453        O  0.19996722  0.14839947  0.76942161    -0.74300
O454        O  0.13261558  0.14395413  0.78293412    -0.74300
O455        O  0.17015256  0.11174364  0.78293757    -0.74300
O456        O  0.16367509  0.17900581  0.77032409    -0.74400
Ni457      Ni  0.15805888  0.13805071  0.73605724     1.25400
Ni458      Ni  0.16675117  0.14572088  0.77781470     1.25400
C459        C  0.15891730  0.18684203  0.74885255     0.87900
C460        C  0.16965937  0.09715860  0.76532797     0.87800
C461        C  0.11746245  0.14255483  0.76506727     0.87900
C462        C  0.20686548  0.14693564  0.74753631     0.88000
O463        O  0.16250210  0.30280716  0.76173536    -0.74300
O464        O  0.16455431  0.37186807  0.75759159    -0.74300
O465        O  0.12832980  0.33549776  0.75640746    -0.74400
O466        O  0.19764925  0.33776730  0.76285006    -0.74400
O467        O  0.20065668  0.33544455  0.72281700    -0.74300
O468        O  0.13165954  0.33440397  0.71623070    -0.74300
O469        O  0.16842895  0.36994734  0.71755320    -0.74300
O470        O  0.16509617  0.30106804  0.72161496    -0.74400
Ni471      Ni  0.16300046  0.33724874  0.76106948     1.25400
Ni472      Ni  0.16638606  0.33538072  0.71811084     1.25400
C473        C  0.16297226  0.29056511  0.74239260     0.87900
C474        C  0.16945714  0.38200922  0.73709751     0.87800
C475        C  0.11896235  0.33179416  0.73532235     0.87900
C476        C  0.21056820  0.33671036  0.74393692     0.88000
O477        O  0.32091035  0.15070604  0.71677870    -0.74300
O478        O  0.38995205  0.14933037  0.72066298    -0.74300
O479        O  0.35222495  0.11481544  0.71815399    -0.74400
O480        O  0.35721605  0.18394604  0.71985244    -0.74400
O481        O  0.35703842  0.18160026  0.76012800    -0.74300
O482        O  0.34993356  0.11295788  0.75842382    -0.74300
O483        O  0.38908971  0.14644482  0.76095799    -0.74300
O484        O  0.31990150  0.14984530  0.75720301    -0.74400
Ni485      Ni  0.35533134  0.14953162  0.71742061     1.25400
Ni486      Ni  0.35414579  0.14739235  0.76061932     1.25400
C487        C  0.30915124  0.15098982  0.73642224     0.87900
C488        C  0.40081651  0.15045539  0.74136618     0.87800
C489        C  0.34743890  0.10291910  0.73781653     0.87900
C490        C  0.35777558  0.19420175  0.74042302     0.88000
N491        N  0.30484959  0.49653601  0.78542509    -0.03300
C492        C  0.32502536  0.48259321  0.78670381    -0.00700
C493        C  0.33950430  0.48890558  0.80642041    -0.23600
C494        C  0.32833734  0.50698191  0.81777797    -0.23800
C495        C  0.30717832  0.51132814  0.80492058    -0.00800
H496        H  0.35618815  0.48063824  0.81237295     0.13000
H497        H  0.33506257  0.51626931  0.83368703     0.13000
N498        N  0.22271356  0.49433918  0.71872508    -0.03300
C499        C  0.21829664  0.51094807  0.70053848    -0.00700
C500        C  0.19720189  0.50511160  0.68793037    -0.23600
C501        C  0.18812309  0.48429134  0.69817390    -0.23800
C502        C  0.20390000  0.47781478  0.71678826    -0.00800
H503        H  0.18912811  0.51520719  0.67296039     0.13000
H504        H  0.17193928  0.47445862  0.69228643     0.13000
C505        C  0.26084867  0.49311985  0.77694034    -0.20100
C506        C  0.28451446  0.49543400  0.76817307    -0.06700
C507        C  0.28743174  0.49776326  0.74272057     0.14200
C508        C  0.26690160  0.49669685  0.72700231    -0.20200
C509        C  0.24321981  0.49439159  0.73580855    -0.06700
C510        C  0.24029060  0.49316927  0.76130177     0.14100
C511        C  0.21588015  0.49337802  0.77286601    -0.23500
H512        H  0.25836149  0.49187561  0.79635998     0.15400
H513        H  0.26935951  0.49818724  0.70758709     0.15500
C514        C  0.31167349  0.50274740  0.73146841    -0.23500
H515        H  0.21553162  0.50843934  0.78572283     0.05700
H516        H  0.21256509  0.47614608  0.78300253     0.08900
H517        H  0.20086193  0.49617043  0.75963059     0.08900
H518        H  0.31646179  0.48732293  0.72024937     0.08900
H519        H  0.32630185  0.50606085  0.74504729     0.08900
H520        H  0.31075777  0.51920755  0.71970060     0.05700
C521        C  0.20240740  0.41075844  0.72529871    -0.20100
C522        C  0.17968806  0.40705682  0.73604437    -0.06700
C523        C  0.16805753  0.42695649  0.74546940     0.14200
C524        C  0.17834511  0.45025916  0.74188012    -0.20200
C525        C  0.20025492  0.45414615  0.72952261    -0.06700
C526        C  0.21285680  0.43397217  0.72205486     0.14100
C527        C  0.23658998  0.43699637  0.70925652    -0.23500
H528        H  0.21179472  0.39535525  0.71883291     0.15400
H529        H  0.16827138  0.46572133  0.74706184     0.15500
C530        C  0.14410790  0.42383840  0.75780650    -0.23500
H531        H  0.24379098  0.41939381  0.70415274     0.05700
H532        H  0.25018062  0.44587397  0.72141773     0.08900
H533        H  0.23424237  0.44814776  0.69245127     0.08900
H534        H  0.14621942  0.41225139  0.77433538     0.08900
H535        H  0.13057527  0.41532281  0.74528894     0.08900
H536        H  0.13706179  0.44136498  0.76334490     0.05700
C537        C  0.24284935  0.13688872  0.72437308    -0.20100
C538        C  0.23261198  0.15084507  0.74216835    -0.06700
C539        C  0.24731306  0.16769289  0.75496853     0.14200
C540        C  0.27228784  0.16807886  0.75166964    -0.20200
C541        C  0.28275278  0.15251014  0.73558627    -0.06700
C542        C  0.26788620  0.13743652  0.72093330     0.14100
C543        C  0.27828041  0.12109676  0.70260760    -0.23500
H544        H  0.23137364  0.12468901  0.71390161     0.15400
H545        H  0.28384772  0.18021246  0.76217006     0.15500
C546        C  0.23691163  0.18562159  0.77174085    -0.23500
H547        H  0.26396221  0.10990084  0.69352380     0.05700
H548        H  0.29131035  0.10875911  0.71159239     0.08900
H549        H  0.28766138  0.13203779  0.68838806     0.08900
H550        H  0.22942429  0.17630733  0.78802608     0.08900
H551        H  0.22247589  0.19580398  0.76204885     0.08900
H552        H  0.25091877  0.19885812  0.77816385     0.05700
C553        C  0.14682102  0.22635217  0.76277922    -0.20100
C554        C  0.15793891  0.21312176  0.74501695    -0.06700
C555        C  0.17031672  0.22538128  0.72611612     0.14200
C556        C  0.17138949  0.25065960  0.72563641    -0.20200
C557        C  0.16079527  0.26394986  0.74382705    -0.06700
C558        C  0.14798055  0.25153363  0.76249401     0.14100
C559        C  0.13529685  0.26438136  0.78218739    -0.23500
H560        H  0.13764599  0.21686063  0.77742791     0.15400
H561        H  0.18118868  0.26007938  0.71131814     0.15500
C562        C  0.18353218  0.21197735  0.70725369    -0.23500
H563        H  0.12502555  0.25164049  0.79418976     0.05700
H564        H  0.12221139  0.27721124  0.77408150     0.08900
H565        H  0.14875664  0.27412932  0.79380536     0.08900
H566        H  0.17047809  0.20076156  0.69655182     0.08900
H567        H  0.19721736  0.20027288  0.71620106     0.08900
H568        H  0.19311016  0.22445975  0.69443722     0.05700
C569        C  0.36203799  0.43350410  0.76012409    -0.20100
C570        C  0.34658014  0.41343907  0.76388697    -0.06700
C571        C  0.32216602  0.41737730  0.77001255     0.14200
C572        C  0.31448761  0.44086470  0.77429956    -0.20200
C573        C  0.33055871  0.46071809  0.77276945    -0.06700
C574        C  0.35439313  0.45700416  0.76449706     0.14100
C575        C  0.37253669  0.47745499  0.76083355    -0.23500
H576        H  0.38049611  0.43079818  0.75470722     0.15400
H577        H  0.29633813  0.44347581  0.78065727     0.15500
C578        C  0.30400235  0.39681536  0.77208012    -0.23500
H579        H  0.37894918  0.47753428  0.74190021     0.05700
H580        H  0.38827524  0.47502588  0.77343177     0.08900
H581        H  0.36485146  0.49530517  0.76392504     0.08900
H582        H  0.30991545  0.38366758  0.78628544     0.08900
H583        H  0.30217445  0.38799438  0.75433109     0.08900
H584        H  0.28581326  0.40299943  0.77690003     0.05700
C585        C  0.27525513  0.32990226  0.76755902    -0.20100
C586        C  0.28858677  0.33915995  0.74781970    -0.06700
C587        C  0.27593628  0.34741317  0.72673864     0.14200
C588        C  0.25054478  0.34633390  0.72623289    -0.20200
C589        C  0.23731908  0.33735887  0.74611543    -0.06700
C590        C  0.24992034  0.32894274  0.76708236     0.14100
C591        C  0.23706239  0.31840941  0.78890463    -0.23500
H592        H  0.28471084  0.32334615  0.78370235     0.15400
H593        H  0.24090705  0.35289857  0.71019088     0.15500
C594        C  0.28870258  0.35784031  0.70483450    -0.23500
H595        H  0.24996571  0.31144941  0.80293138     0.05700
H596        H  0.22491074  0.30316004  0.78338086     0.08900
H597        H  0.22644064  0.33244465  0.79747243     0.08900
H598        H  0.30003390  0.34398767  0.69688096     0.08900
H599        H  0.30013481  0.37371649  0.71003482     0.08900
H600        H  0.27572277  0.36391569  0.69045233     0.05700
C601        C  0.35681181  0.26199673  0.72630657    -0.20100
C602        C  0.36258387  0.27130061  0.74927282    -0.06700
C603        C  0.36781195  0.25504382  0.76875305     0.14200
C604        C  0.36644529  0.23026992  0.76483549    -0.20200
C605        C  0.35986619  0.22087363  0.74213810    -0.06700
C606        C  0.35534282  0.23708158  0.72243070     0.14100
C607        C  0.34848817  0.22857050  0.69739805    -0.23500
H608        H  0.35289443  0.27431010  0.71129858     0.15400
H609        H  0.37050838  0.21808634  0.77990712     0.15500
C610        C  0.37524201  0.26327566  0.79376532    -0.23500
H611        H  0.34496486  0.24383871  0.68456296     0.05700
H612        H  0.33172476  0.21710123  0.69812868     0.08900
H613        H  0.36349247  0.21828741  0.69000580     0.08900
H614        H  0.36007628  0.27244490  0.80220439     0.08900
H615        H  0.39133491  0.27555945  0.79259179     0.08900
H616        H  0.38015267  0.24798383  0.80606970     0.05700
C617        C  0.05141518  0.32048783  0.72423966    -0.20100
C618        C  0.05082149  0.29560931  0.71944523    -0.06700
C619        C  0.07208264  0.28251908  0.72359446     0.14200
C620        C  0.09370130  0.29490422  0.73020630    -0.20200
C621        C  0.09464560  0.32002694  0.73295251    -0.06700
C622        C  0.07309797  0.33283767  0.73089394     0.14100
C623        C  0.07330497  0.35961687  0.73432276    -0.23500
H624        H  0.03520935  0.33067819  0.72073134     0.15400
H625        H  0.11032878  0.28506724  0.73188018     0.15500
C626        C  0.07248024  0.25583665  0.71947412    -0.23500
H627        H  0.05491743  0.36700191  0.73184105     0.05700
H628        H  0.08541112  0.36871904  0.72094459     0.08900
H629        H  0.08000452  0.36374678  0.75292148     0.08900
H630        H  0.06666778  0.25190362  0.70056360     0.08900
H631        H  0.06015730  0.24624690  0.73227194     0.08900
H632        H  0.09087861  0.24864171  0.72260532     0.05700
C633        C  0.09247242  0.17603921  0.77720774    -0.20100
C634        C  0.09313136  0.15272097  0.76791930    -0.06700
C635        C  0.07120755  0.14110713  0.76075527    -0.03800
C636        C  0.04911648  0.15224822  0.76514718    -0.20200
C637        C  0.04850363  0.17516724  0.77556745    -0.06700
C638        C  0.07055911  0.18747974  0.78081914     0.14100
C639        C  0.07098788  0.21211900  0.79169816    -0.23500
H640        H  0.10932055  0.18524640  0.78208480     0.15400
H641        H  0.03222015  0.14236312  0.76190119     0.15500
C642        C  0.07102447  0.11650457  0.74993335    -0.23500
H643        H  0.06178752  0.22494733  0.77909885     0.05700
H644        H  0.08978107  0.21907312  0.79499162     0.08900
H645        H  0.06160198  0.21146113  0.80929774     0.08900
H646        H  0.07999516  0.10363143  0.76268391     0.08900
H647        H  0.08081427  0.11728315  0.73257096     0.08900
H648        H  0.05228344  0.10963355  0.74614954     0.05700
C649        C  0.01105656  0.24207880  0.76997265    -0.20100
C650        C  0.01057228  0.21729029  0.76518541    -0.06700
C651        C  0.00882014  0.21027209  0.74065950     0.14200
C652        C  0.00965896  0.22793551  0.72189043    -0.20200
C653        C  0.01082672  0.25270579  0.72665652    -0.06700
C654        C  0.01053378  0.25975843  0.75115138     0.14100
C655        C  0.00850576  0.28561691  0.75808351    -0.23500
H656        H  0.01160038  0.24770297  0.78864362     0.15400
H657        H  0.00926728  0.22229657  0.70323124     0.15500
C658        C  0.00471987  0.18448883  0.73352585    -0.23500
H659        H  0.02515085  0.29154057  0.76816166     0.05700
H660        H  0.99267878  0.28735797  0.76991916     0.08900
H661        H  0.00562907  0.29779342  0.74216125     0.08900
H662        H  0.00133259  0.17222569  0.74924369     0.08900
H663        H  0.02063026  0.17835841  0.72364324     0.08900
H664        H  0.98843227  0.18308770  0.72143115     0.05700
C665        C  0.29955869  0.05225243  0.73668961    -0.20100
C666        C  0.30941568  0.03706064  0.71982195    -0.06700
C667        C  0.33411355  0.04074946  0.71370128     0.14200
C668        C  0.34682265  0.06168137  0.72102367    -0.20200
C669        C  0.33628089  0.07819377  0.73605798    -0.06700
C670        C  0.31297148  0.07237729  0.74547288     0.14100
C671        C  0.30141795  0.08805615  0.76358235    -0.23500
H672        H  0.28085584  0.04931582  0.74179441     0.15400
H673        H  0.36488450  0.06546057  0.71436384     0.15500
C674        C  0.34738297  0.02320254  0.69875513    -0.23500
H675        H  0.28331520  0.08080652  0.76892890     0.05700
H676        H  0.29898063  0.10631873  0.75576542     0.08900
H677        H  0.31302941  0.08912064  0.78020701     0.08900
H678        H  0.35251543  0.03190153  0.68121944     0.08900
H679        H  0.33649886  0.00655166  0.69512785     0.08900
H680        H  0.36407252  0.01767319  0.70873079     0.05700
C681        C  0.21455622  0.04707973  0.77615962    -0.20100
C682        C  0.20099740  0.03071699  0.79042602    -0.06700
C683        C  0.17570249  0.03427719  0.79239626     0.14200
C684        C  0.16541928  0.05545295  0.78278667    -0.20200
C685        C  0.17936282  0.07267557  0.77002126    -0.06700
C686        C  0.20400355  0.06785164  0.76580788     0.14100
C687        C  0.21972972  0.08543079  0.75178361    -0.23500
H688        H  0.23381705  0.04452533  0.77447820     0.15400
H689        H  0.14650760  0.05882237  0.78586494     0.15500
C690        C  0.15897245  0.01614687  0.80469656    -0.23500
H691        H  0.23822963  0.07863021  0.74940242     0.05700
H692        H  0.22148532  0.10246420  0.76175154     0.08900
H693        H  0.21151015  0.08878400  0.73352664     0.08900
H694        H  0.15141843  0.02409009  0.82108768     0.08900
H695        H  0.16802709  0.99921072  0.80998955     0.08900
H696        H  0.14382925  0.01123597  0.79203687     0.05700
C697        C  0.26732554  0.99381300  0.77787182    -0.20100
C698        C  0.24178707  0.99343606  0.77762371    -0.06700
C699        C  0.22938680  0.99267650  0.75499332     0.14200
C700        C  0.24256349  0.99514025  0.73351265    -0.20200
C701        C  0.26806503  0.99661919  0.73366405    -0.06700
C702        C  0.28055653  0.99468869  0.75624607     0.14100
C703        C  0.30763527  0.99281995  0.75812470    -0.23500
H704        H  0.27705404  0.99362772  0.79513932     0.15400
H705        H  0.23273949  0.99613626  0.71637670     0.15500
C706        C  0.20239416  0.98857752  0.75283127    -0.23500
H707        H  0.31225582  0.97616240  0.76853092     0.05700
H708        H  0.31553852  0.00860827  0.76774794     0.08900
H709        H  0.31602832  0.99177561  0.74013216     0.08900
H710        H  0.19398263  0.00457920  0.74407215     0.08900
H711        H  0.19396098  0.98486351  0.77061903     0.08900
H712        H  0.19838049  0.97266769  0.74147110     0.05700
C713        C  0.44345874  0.14702263  0.75751626    -0.20100
C714        C  0.42665701  0.15903466  0.74252590    -0.06700
C715        C  0.43453256  0.18021454  0.72961532     0.14200
C716        C  0.45896429  0.18787437  0.73095486    -0.20200
C717        C  0.47611692  0.17475906  0.74426680    -0.06700
C718        C  0.46811669  0.15431653  0.75820248     0.14100
C719        C  0.48523015  0.13950000  0.77361539    -0.23500
H720        H  0.43753116  0.13130591  0.76803725     0.15400
H721        H  0.46504254  0.20329071  0.72007031     0.15500
C722        C  0.41737774  0.19524903  0.71448517    -0.23500
H723        H  0.48508919  0.12077137  0.76702584     0.05700
H724        H  0.47927675  0.13918160  0.79271469     0.08900
H725        H  0.50411705  0.14675496  0.77338185     0.08900
H726        H  0.40323563  0.20199243  0.72620294     0.08900
H727        H  0.40909655  0.18457900  0.69957898     0.08900
H728        H  0.42666974  0.21122467  0.70604462     0.05700
C729        C  0.47480191  0.32882743  0.75794624    -0.20100
C730        C  0.47807198  0.31092556  0.77617082    -0.06700
C731        C  0.45767782  0.30272346  0.78931512     0.14200
C732        C  0.43519341  0.31337193  0.78490305    -0.20200
C733        C  0.43191591  0.33174450  0.76719334    -0.06700
C734        C  0.45194596  0.33888842  0.75287377     0.14100
C735        C  0.44973773  0.35794728  0.73316609    -0.23500
H736        H  0.49052207  0.33594201  0.74848342     0.15400
H737        H  0.41999948  0.30725940  0.79571906     0.15500
C738        C  0.45920158  0.28367029  0.80916511    -0.23500
H739        H  0.46744734  0.36228302  0.72472155     0.05700
H740        H  0.44293218  0.37471903  0.74080504     0.08900
H741        H  0.43710323  0.35153563  0.71865022     0.08900
H742        H  0.45415970  0.29141433  0.82665902     0.08900
H743        H  0.47748632  0.27618190  0.81144640     0.08900
H744        H  0.44639428  0.26852619  0.80488693     0.05700
C745        C  0.51323467  0.24398027  0.78578010    -0.20100
C746        C  0.51378242  0.26632148  0.77344576    -0.06700
C747        C  0.51278985  0.26654126  0.74769363     0.14200
C748        C  0.51067392  0.24461997  0.73523150    -0.20200
C749        C  0.51100229  0.22220868  0.74758836    -0.06700
C750        C  0.51228676  0.22208415  0.77335819     0.14100
C751        C  0.51422732  0.19904439  0.78805879    -0.23500
H752        H  0.51420480  0.24372601  0.80540814     0.15400
H753        H  0.51029666  0.24499202  0.71559172     0.15500
C754        C  0.51595776  0.28928968  0.73263751    -0.23500
H755        H  0.51769869  0.20247090  0.80759406     0.05700
H756        H  0.52940418  0.18839413  0.78156469     0.08900
H757        H  0.49698516  0.18852886  0.78670609     0.08900
H758        H  0.52063686  0.30519879  0.74362100     0.08900
H759        H  0.49908827  0.29268845  0.72195284     0.08900
H760        H  0.53107130  0.28725215  0.71996211     0.05700
C761        C  0.58778676  0.23333696  0.70121981    -0.20100
C762        C  0.58736893  0.23018779  0.67597219    -0.06700
C763        C  0.56623997  0.22050804  0.66485307     0.14200
C764        C  0.54668756  0.21278236  0.67937550    -0.20200
C765        C  0.54821090  0.21326746  0.70495412    -0.06700
C766        C  0.56887568  0.22432401  0.71593558     0.14100
C767        C  0.57221708  0.22463592  0.74310059    -0.23500
H768        H  0.60405459  0.24088417  0.70973742     0.15400
H769        H  0.53099308  0.20411224  0.67083950     0.15500
C770        C  0.56480952  0.21736067  0.63785129    -0.23500
H771        H  0.59038239  0.23198796  0.74851485     0.05700
H772        H  0.57040068  0.20608058  0.75088012     0.08900
H773        H  0.55860415  0.23617758  0.75104994     0.08900
H774        H  0.57912317  0.20513809  0.63225645     0.08900
H775        H  0.56743246  0.23512693  0.62849757     0.08900
H776        H  0.54698021  0.20954483  0.63195083     0.05700
C777        C  0.94359733  0.24393731  0.65327093    -0.20100
C778        C  0.92550805  0.25600225  0.66523740    -0.06700
C779        C  0.93215678  0.26885947  0.68651094     0.14200
C780        C  0.95655010  0.27027649  0.69434968    -0.20200
C781        C  0.97479003  0.25987075  0.68129027    -0.06700
C782        C  0.96817195  0.24616211  0.66070470     0.14100
C783        C  0.98710628  0.23412523  0.64634081    -0.23500
H784        H  0.93862136  0.23352843  0.63747633     0.15400
H785        H  0.96166065  0.28110150  0.70983723     0.15500
C786        C  0.91375567  0.28120393  0.70131625    -0.23500
H787        H  0.97885121  0.22354307  0.63130739     0.05700
H788        H  0.99745153  0.22166711  0.65838709     0.08900
H789        H  0.99976596  0.24775254  0.63826003     0.08900
H790        H  0.89982853  0.26791658  0.70755623     0.08900
H791        H  0.90516012  0.29579740  0.69043178     0.08900
H792        H  0.92211599  0.28952614  0.71769754     0.05700
C793        C  0.76830967  0.26072466  0.66496285    -0.20100
C794        C  0.78080173  0.24151632  0.65536656    -0.06700
C795        C  0.76727672  0.22135471  0.64658896     0.14200
C796        C  0.74190674  0.22102172  0.64789312    -0.20200
C797        C  0.72952002  0.24032165  0.65737089    -0.06700
C798        C  0.74299108  0.26048189  0.66603542     0.14100
C799        C  0.73106928  0.28159429  0.67709425    -0.23500
H800        H  0.77844356  0.27616424  0.67187140     0.15400
H801        H  0.73159399  0.20566133  0.64103479     0.15500
C802        C  0.77910027  0.20031777  0.63532550    -0.23500
H803        H  0.74458197  0.29490669  0.68432320     0.05700
H804        H  0.71958584  0.27523982  0.69236075     0.08900
H805        H  0.71989059  0.29114578  0.66317716     0.08900
H806        H  0.79073503  0.19097764  0.64900534     0.08900
H807        H  0.79009215  0.20667380  0.61971231     0.08900
H808        H  0.76552661  0.18684844  0.62850099     0.05700
C809        C  0.59883207  0.27314161  0.81372627    -0.20100
C810        C  0.59871580  0.26570905  0.83828728    -0.06700
C811        C  0.57630856  0.26234898  0.84976681     0.14200
C812        C  0.55477930  0.26854058  0.83702245    -0.20200
C813        C  0.55511192  0.27758686  0.81288998    -0.06700
C814        C  0.57744136  0.27895221  0.80090119     0.14100
C815        C  0.57955813  0.28796567  0.77504746    -0.23500
H816        H  0.61596932  0.27515413  0.80456948     0.15400
H817        H  0.53777634  0.26793935  0.84648021     0.15500
C818        C  0.57528569  0.25366023  0.87574565    -0.23500
H819        H  0.58829581  0.27419258  0.76420647     0.05700
H820        H  0.59090804  0.30476768  0.77448359     0.08900
H821        H  0.56176966  0.29174375  0.76634822     0.08900
H822        H  0.58582042  0.26629131  0.88748196     0.08900
H823        H  0.58310750  0.23550071  0.87755745     0.08900
H824        H  0.55638133  0.25243600  0.88220302     0.05700
C825        C  0.65188314  0.22737791  0.77244494    -0.20100
C826        C  0.66283584  0.24853632  0.78160089    -0.06700
C827        C  0.67189406  0.26637607  0.76504731     0.14200
C828        C  0.66993827  0.26233333  0.74014369    -0.20200
C829        C  0.65938971  0.24104550  0.73107222    -0.06700
C830        C  0.65011659  0.22331046  0.74747424     0.14100
C831        C  0.63801866  0.20022814  0.73902850    -0.23500
H832        H  0.64463609  0.21379407  0.78492113     0.15400
H833        H  0.67710084  0.27589123  0.72757170     0.15500
C834        C  0.68411548  0.28958337  0.77306578    -0.23500
H835        H  0.63056319  0.18927328  0.75437280     0.05700
H836        H  0.65133186  0.18910415  0.72994848     0.08900
H837        H  0.62279529  0.20423294  0.72628908     0.08900
H838        H  0.69997063  0.28561483  0.78506719     0.08900
H839        H  0.67106702  0.30060860  0.78266025     0.08900
H840        H  0.69083098  0.30069707  0.75748440     0.05700
C841        C  0.93159975  0.20936838  0.81220732    -0.20100
C842        C  0.93166873  0.22303578  0.83334355    -0.06700
C843        C  0.95371832  0.23364870  0.84169633     0.14200
C844        C  0.97538342  0.22823879  0.83011556    -0.20200
C845        C  0.97534425  0.21319585  0.80991311    -0.06700
C846        C  0.95302217  0.20461521  0.80024445     0.14100
C847        C  0.95191128  0.18914322  0.77815613    -0.23500
H848        H  0.91459411  0.20185337  0.80526254     0.15400
H849        H  0.99260563  0.23440775  0.83784499     0.15500
C850        C  0.95464696  0.24932395  0.86356940    -0.23500
H851        H  0.93299447  0.18368350  0.77316621     0.05700
H852        H  0.96229030  0.17253620  0.78156952     0.08900
H853        H  0.95969517  0.19937917  0.76253206     0.08900
H854        H  0.94723733  0.23915105  0.87943385     0.08900
H855        H  0.94380867  0.26558595  0.85993664     0.08900
H856        H  0.97348049  0.25538165  0.86819525     0.05700
C857        C  0.77578407  0.22029594  0.85423101    -0.20100
C858        C  0.79066141  0.24065442  0.84911981    -0.06700
C859        C  0.77976049  0.26322247  0.84506037     0.14200
C860        C  0.75456557  0.26461377  0.84611331    -0.20200
C861        C  0.73964823  0.24434137  0.85145875    -0.06700
C862        C  0.75055672  0.22176475  0.85562268     0.14100
C863        C  0.73615381  0.19907542  0.86185204    -0.23500
H864        H  0.78397324  0.20300751  0.85760190     0.15400
H865        H  0.74650362  0.28196815  0.84281722     0.15500
C866        C  0.79415064  0.28611049  0.83951337    -0.23500
H867        H  0.74794431  0.18337104  0.86490878     0.05700
H868        H  0.72337185  0.19459362  0.84672238     0.08900
H869        H  0.72610322  0.20150883  0.87878775     0.08900
H870        H  0.80508411  0.28388898  0.82315789     0.08900
H871        H  0.80609415  0.29077395  0.85523675     0.08900
H872        H  0.78230749  0.30167266  0.83587596     0.05700
C873        C  0.87543222  0.22324568  0.76287130    -0.20100
C874        C  0.86031308  0.23720545  0.77657523    -0.06700
C875        C  0.84355034  0.25245718  0.76481732     0.14200
C876        C  0.84251577  0.25362692  0.73949406    -0.20200
C877        C  0.85772674  0.23983498  0.72568730    -0.06700
C878        C  0.87456247  0.22453261  0.73746902     0.14100
C879        C  0.89223331  0.21028627  0.72354116    -0.23500
H880        H  0.88819246  0.21154475  0.77209048     0.15400
H881        H  0.82958468  0.26526576  0.73037917     0.15500
C882        C  0.82615269  0.26685728  0.77887441    -0.23500
H883        H  0.90497669  0.20050718  0.73583422     0.05700
H884        H  0.90312482  0.22255681  0.71161719     0.08900
H885        H  0.88234310  0.19670732  0.71239956     0.08900
H886        H  0.83630409  0.28015555  0.79013974     0.08900
H887        H  0.81516810  0.25457254  0.79070801     0.08900
H888        H  0.81353099  0.27693690  0.76671362     0.05700
C889        C  0.27355753  0.75035062  0.50494941    -0.20100
C890        C  0.26302922  0.77303614  0.50354184    -0.06700
C891        C  0.23736628  0.77394210  0.50273672     0.14200
C892        C  0.22322913  0.75239868  0.50416848    -0.20200
C893        C  0.23374363  0.72963074  0.50502885    -0.06700
C894        C  0.25942167  0.72880460  0.50518529     0.14100
C895        C  0.27223887  0.70541822  0.50398007    -0.23500
H896        H  0.29312456  0.74951364  0.50519118     0.15400
H897        H  0.20366914  0.75327112  0.50350463     0.15500
C898        C  0.22461579  0.79726815  0.49823148    -0.23500
H899        H  0.27064579  0.69564186  0.52155834     0.05700
H900        H  0.26447030  0.69447936  0.48897371     0.08900
H901        H  0.29188468  0.70827456  0.50068755     0.08900
H902        H  0.23232374  0.80700194  0.48224891     0.08900
H903        H  0.22629575  0.80863652  0.51435330     0.08900
H904        H  0.20494466  0.79419171  0.49452236     0.05700
C905        C  0.22928659  0.57767585  0.69641488    -0.20100
C906        C  0.23754464  0.58028745  0.67256805    -0.06700
C907        C  0.24472337  0.55973083  0.66044162     0.14200
C908        C  0.24142393  0.53682933  0.67171970    -0.20200
C909        C  0.23135693  0.53406979  0.69494537    -0.06700
C910        C  0.22612344  0.55496365  0.70773727     0.14100
C911        C  0.21558679  0.55398882  0.73269191    -0.23500
H912        H  0.22453747  0.59356882  0.70612746     0.15400
H913        H  0.24490163  0.52085155  0.66159342     0.15500
C914        C  0.25430716  0.56182159  0.63515106    -0.23500
H915        H  0.22774176  0.56414356  0.74533772     0.05700
H916        H  0.21335096  0.53542918  0.74006999     0.08900
H917        H  0.19754274  0.56232239  0.73211072     0.08900
H918        H  0.27123186  0.57306488  0.63514250     0.08900
H919        H  0.24065302  0.57030272  0.62286120     0.08900
H920        H  0.25843162  0.54392485  0.62796233     0.05700
C921        C  0.24283488  0.65273509  0.56952949    -0.20100
C922        C  0.23173581  0.66505025  0.58794563    -0.06700
C923        C  0.21949263  0.68657017  0.58190258     0.14200
C924        C  0.21804564  0.69471710  0.55759675    -0.20200
C925        C  0.22775542  0.68154511  0.53898368    -0.06700
C926        C  0.24037682  0.66021118  0.54507781     0.14100
C927        C  0.25079122  0.64477544  0.52591054    -0.23500
H928        H  0.25263485  0.63658825  0.57422620     0.15400
H929        H  0.20783696  0.71061450  0.55290444     0.15500
C930        C  0.20807726  0.70123789  0.60098046    -0.23500
H931        H  0.26062807  0.62931484  0.53408537     0.05700
H932        H  0.26376931  0.65539538  0.51468625     0.08900
H933        H  0.23622490  0.63725458  0.51399419     0.08900
H934        H  0.22208822  0.70691229  0.61450802     0.08900
H935        H  0.19352577  0.69048307  0.61006168     0.08900
H936        H  0.19982529  0.71775608  0.59312326     0.05700
C937        C  0.27913731  0.53047008  0.83300690    -0.20100
C938        C  0.29221282  0.53207533  0.81132699    -0.06700
C939        C  0.29781960  0.55510493  0.80139895     0.14200
C940        C  0.29197965  0.57570619  0.81413922    -0.20200
C941        C  0.28033470  0.57423032  0.83662122    -0.06700
C942        C  0.27286951  0.55121161  0.84564283     0.14100
C943        C  0.25981717  0.54769586  0.86916004    -0.23500
H944        H  0.27529474  0.51282671  0.84107239     0.15400
H945        H  0.29726166  0.59326759  0.80676799     0.15500
C946        C  0.31133678  0.55794112  0.77802352    -0.23500
H947        H  0.27070569  0.53628764  0.88181267     0.05700
H948        H  0.24201631  0.53850401  0.86568868     0.08900
H949        H  0.25662679  0.56485114  0.87822478     0.08900
H950        H  0.30068166  0.54920622  0.76321125     0.08900
H951        H  0.32924880  0.54943864  0.77990382     0.08900
H952        H  0.31444536  0.57719160  0.77280790     0.05700
C953        C  0.27412136  0.63161122  0.76693896    -0.20100
C954        C  0.25798855  0.64319630  0.78170478    -0.06700
C955        C  0.23843184  0.65580013  0.77108276     0.14200
C956        C  0.23578319  0.65676500  0.74583097    -0.20200
C957        C  0.25208412  0.64543224  0.73097584    -0.06700
C958        C  0.27127461  0.63224132  0.74168333     0.14100
C959        C  0.28835838  0.61815253  0.72687278    -0.23500
H960        H  0.28899926  0.62188875  0.77523285     0.15400
H961        H  0.22106643  0.66681286  0.73760757     0.15500
C962        C  0.22089092  0.66912243  0.78609235    -0.23500
H963        H  0.30095637  0.60751202  0.73853794     0.05700
H964        H  0.29958378  0.63056316  0.71544799     0.08900
H965        H  0.27788224  0.60535885  0.71525576     0.08900
H966        H  0.23093491  0.68228061  0.79765062     0.08900
H967        H  0.21035894  0.65621972  0.79765627     0.08900
H968        H  0.20771070  0.67920997  0.77457840     0.05700
C969        C  0.24760453  0.93323603  0.66208809    -0.20100
C970        C  0.26659578  0.91742860  0.66723545    -0.06700
C971        C  0.28588140  0.92539277  0.68293836     0.14200
C972        C  0.28590003  0.94878374  0.69216469    -0.20200
C973        C  0.26764446  0.96486721  0.68586125    -0.06700
C974        C  0.24807745  0.95687608  0.67086370     0.14100
C975        C  0.22765419  0.97328493  0.66401031    -0.23500
H976        H  0.23244578  0.92720988  0.65077856     0.15400
H977        H  0.30115034  0.95513461  0.70320659     0.15500
C978        C  0.30665970  0.90957368  0.69032520    -0.23500
H979        H  0.21381390  0.96417765  0.65226055     0.05700
H980        H  0.23460777  0.98946203  0.65396244     0.08900
H981        H  0.21855902  0.97892022  0.68057368     0.08900
H982        H  0.31715466  0.90518621  0.67416518     0.08900
H983        H  0.29967418  0.89280909  0.69929034     0.08900
H984        H  0.31940383  0.91854462  0.70332510     0.05700
C985        C  0.27335799  0.80374729  0.55612665    -0.20100
C986        C  0.26699737  0.81929011  0.53692569    -0.06700
C987        C  0.25609752  0.84140245  0.54204125     0.14200
C988        C  0.25384102  0.84828851  0.56623450    -0.20200
C989        C  0.26249546  0.83373667  0.58538895    -0.06700
C990        C  0.27133375  0.81070681  0.58024999     0.14100
C991        C  0.27884358  0.79334931  0.60012958    -0.23500
H992        H  0.28171703  0.78687436  0.55225849     0.15400
H993        H  0.24617564  0.86550461  0.57008112     0.15500
C994        C  0.24716556  0.85832453  0.52228138    -0.23500
H995        H  0.28505532  0.77612873  0.59291870     0.05700
H996        H  0.26314944  0.78909040  0.61176999     0.08900
H997        H  0.29399516  0.80139852  0.61093939     0.08900
H998        H  0.24887720  0.85092538  0.50392684     0.08900
H999        H  0.25757787  0.87567859  0.52308674     0.08900
H1000       H  0.22769944  0.86173142  0.52490926     0.05700
C1001       C  0.23083938  0.76339438  0.66229551    -0.20100
C1002       C  0.25422139  0.77387174  0.66088195    -0.06700
C1003       C  0.27440271  0.75855312  0.66127627     0.14200
C1004       C  0.27039222  0.73356700  0.66128196    -0.20200
C1005       C  0.24698274  0.72308143  0.66177753    -0.06700
C1006       C  0.22688702  0.73835984  0.66313943     0.14100
C1007       C  0.20115739  0.72889087  0.66560563    -0.23500
H1008       H  0.21535041  0.77489513  0.66281320     0.15400
H1009       H  0.28591363  0.72209276  0.66099503     0.15500
C1010       C  0.30035078  0.76785876  0.66195588    -0.23500
H1011       H  0.18810463  0.74364676  0.66677599     0.05700
H1012       H  0.19955678  0.71770602  0.68246807     0.08900
H1013       H  0.19564970  0.71815615  0.64962709     0.08900
H1014       H  0.30374022  0.77868399  0.67839760     0.08900
H1015       H  0.30430027  0.77886214  0.64546329     0.08900
H1016       H  0.31344114  0.75303121  0.66268994     0.05700
C1017       C  0.26314587  0.92722053  0.84919354    -0.20100
C1018       C  0.24782730  0.90909046  0.83952273    -0.06700
C1019       C  0.23173587  0.91541404  0.82002900     0.14200
C1020       C  0.22991618  0.93967106  0.81241784    -0.20200
C1021       C  0.24362645  0.95797059  0.82363534    -0.06700
C1022       C  0.26113868  0.95151975  0.84160606     0.14100
C1023       C  0.27777746  0.96999740  0.85327896    -0.23500
H1024       H  0.27632244  0.92254339  0.86324786     0.15400
H1025       H  0.21648834  0.94457386  0.79867846     0.15500
C1026       C  0.21653436  0.89677679  0.80676077    -0.23500
H1027       H  0.29688349  0.96521246  0.85048734     0.05700
H1028       H  0.27444354  0.97029267  0.87303317     0.08900
H1029       H  0.27531071  0.98837586  0.84549162     0.08900
H1030       H  0.20327746  0.88795036  0.81914079     0.08900
H1031       H  0.22841527  0.88316686  0.79924678     0.08900
H1032       H  0.20607811  0.90487357  0.79135020     0.05700
C1033       C  0.23925475  0.83004969  0.76610013    -0.20100
C1034       C  0.25763323  0.84174949  0.77969128    -0.06700
C1035       C  0.27590726  0.85544003  0.76759642     0.14200
C1036       C  0.27541821  0.85667376  0.74225240    -0.20200
C1037       C  0.25702073  0.84501933  0.72872894    -0.06700
C1038       C  0.23867921  0.83146144  0.74077237     0.14100
C1039       C  0.21896873  0.81768005  0.72719855    -0.23500
H1040       H  0.22531783  0.81950429  0.77536376     0.15400
H1041       H  0.28944861  0.86697284  0.73291772     0.15500
C1042       C  0.29554767  0.86943948  0.78102572    -0.23500
H1043       H  0.20719589  0.80687848  0.73965504     0.05700
H1044       H  0.22713276  0.80509404  0.71455486     0.08900
H1045       H  0.20719804  0.83035332  0.71692099     0.08900
H1046       H  0.30748910  0.85691702  0.79129433     0.08900
H1047       H  0.28730272  0.88203465  0.79360583     0.08900
H1048       H  0.30718039  0.88029254  0.76847693     0.05700
C1049       C  0.23826359  0.75125658  0.85220422    -0.20100
C1050       C  0.25977839  0.76552930  0.85182762    -0.06700
C1051       C  0.28225597  0.75381803  0.85224439     0.14200
C1052       C  0.28245187  0.72863048  0.85287131    -0.20200
C1053       C  0.26101220  0.71432998  0.85311420    -0.06700
C1054       C  0.23851790  0.72594809  0.85292666     0.14100
C1055       C  0.21465415  0.71211588  0.85332235    -0.23500
H1056       H  0.22094308  0.75993189  0.85211099     0.15400
H1057       H  0.29983027  0.72005612  0.85326487     0.15500
C1058       C  0.30634729  0.76732237  0.85196970    -0.23500
H1059       H  0.19901623  0.72426931  0.85270825     0.05700
H1060       H  0.21341189  0.70104137  0.87028270     0.08900
H1061       H  0.21293183  0.70039770  0.83732720     0.08900
H1062       H  0.30859701  0.77826726  0.86847689     0.08900
H1063       H  0.30751689  0.77901748  0.83541788     0.08900
H1064       H  0.32183281  0.75500219  0.85182733     0.05700
C1065       C  0.50398908  0.76790142  0.25428214    -0.20100
C1066       C  0.50215781  0.76614450  0.27969344    -0.06700
C1067       C  0.50303783  0.74297972  0.29086081     0.14200
C1068       C  0.50381556  0.72239039  0.27635626    -0.20200
C1069       C  0.50458066  0.72419881  0.25085259    -0.06700
C1070       C  0.50573383  0.74742474  0.23987959     0.14100
C1071       C  0.50946277  0.75123221  0.21313336    -0.23500
H1072       H  0.50381396  0.78547436  0.24547615     0.15400
H1073       H  0.50337885  0.70468177  0.28501883     0.15500
C1074       C  0.50393365  0.73939344  0.31794261    -0.23500
H1075       H  0.52577525  0.76300450  0.21027305     0.05700
H1076       H  0.49347808  0.76009296  0.20473566     0.08900
H1077       H  0.51241047  0.73415414  0.20378683     0.08900
H1078       H  0.48732889  0.72943296  0.32392216     0.08900
H1079       H  0.50563163  0.75664747  0.32755451     0.08900
H1080       H  0.51999944  0.72876189  0.32327225     0.05700
C1081       C  0.46519895  0.71305096  0.18336924    -0.20100
C1082       C  0.46504961  0.71200787  0.20896464    -0.06700
C1083       C  0.44431714  0.71962506  0.22081230     0.14200
C1084       C  0.42412867  0.72714231  0.20687345    -0.20200
C1085       C  0.42341592  0.72555160  0.18146606    -0.06700
C1086       C  0.44445656  0.71924674  0.16951685     0.14100
C1087       C  0.44461059  0.71807774  0.14231417    -0.23500
H1088       H  0.48094988  0.70688029  0.17419277     0.15400
H1089       H  0.40795006  0.73230655  0.21596703     0.15500
C1090       C  0.44244537  0.71762154  0.24796870    -0.23500
H1091       H  0.46254493  0.71286619  0.13574619     0.05700
H1092       H  0.44035484  0.73600228  0.13423924     0.08900
H1093       H  0.43081801  0.70459991  0.13597921     0.08900
H1094       H  0.45659402  0.72914558  0.25663755     0.08900
H1095       H  0.44476810  0.69865236  0.25415700     0.08900
H1096       H  0.42461185  0.72350174  0.25420358     0.05700
C1097       C  0.24483659  0.74387391  0.18172367    -0.20100
C1098       C  0.23026168  0.73175840  0.16453351    -0.06700
C1099       C  0.24114680  0.71652881  0.14793569     0.14200
C1100       C  0.26649233  0.71475029  0.14835488    -0.20200
C1101       C  0.28098875  0.72808928  0.16465413    -0.06700
C1102       C  0.27002531  0.74217269  0.18205457     0.14100
C1103       C  0.28477257  0.75501074  0.20135884    -0.23500
H1104       H  0.23645426  0.75519268  0.19470941     0.15400
H1105       H  0.27509175  0.70364375  0.13534147     0.15500
C1106       C  0.22642033  0.70317898  0.12899493    -0.23500
H1107       H  0.27313448  0.76432689  0.21413045     0.05700
H1108       H  0.29709545  0.76877643  0.19298370     0.08900
H1109       H  0.29554209  0.74172499  0.21199513     0.08900
H1110       H  0.21613063  0.71611260  0.11741340     0.08900
H1111       H  0.21364330  0.69017941  0.13790648     0.08900
H1112       H  0.23806210  0.69287450  0.11703252     0.05700
C1113       C  0.19228720  0.73754800  0.42383409    -0.20100
C1114       C  0.16692923  0.73910196  0.42326404    -0.06700
C1115       C  0.15409120  0.73508107  0.44474745     0.14200
C1116       C  0.16672692  0.72753191  0.46588353    -0.20200
C1117       C  0.19174006  0.72309001  0.46566224    -0.06700
C1118       C  0.20484397  0.72922226  0.44464616     0.14100
C1119       C  0.23154419  0.72475130  0.44323224    -0.23500
H1120       H  0.20206115  0.74053362  0.40717662     0.15400
H1121       H  0.15663524  0.72266251  0.48198578     0.15500
C1122       C  0.12702209  0.73731248  0.44490961    -0.23500
H1123       H  0.23865544  0.72956224  0.42501839     0.05700
H1124       H  0.23505940  0.70544390  0.44705288     0.08900
H1125       H  0.24169079  0.73588834  0.45657323     0.08900
H1126       H  0.11833569  0.72443439  0.43209146     0.08900
H1127       H  0.12219065  0.75592653  0.43931158     0.08900
H1128       H  0.11969216  0.73343663  0.46321803     0.05700
C1129       C  0.13579813  0.75398641  0.26775826    -0.20100
C1130       C  0.14903091  0.73644975  0.28057487    -0.06700
C1131       C  0.16253082  0.71984692  0.26759741     0.14200
C1132       C  0.16302760  0.72185399  0.24221892    -0.20200
C1133       C  0.15072992  0.74014378  0.22968439    -0.06700
C1134       C  0.13644259  0.75603279  0.24247055     0.14100
C1135       C  0.12156375  0.77493299  0.22951086    -0.23500
H1136       H  0.12512097  0.76640132  0.27760318     0.15400
H1137       H  0.17393281  0.70977786  0.23216632     0.15500
C1138       C  0.17748270  0.70082374  0.28024098    -0.23500
H1139       H  0.11034106  0.78476856  0.24225447     0.05700
H1140       H  0.10921027  0.76624292  0.21599362     0.08900
H1141       H  0.13352697  0.78839280  0.22019636     0.08900
H1142       H  0.16551033  0.68775652  0.29010434     0.08900
H1143       H  0.19062494  0.70937622  0.29313884     0.08900
H1144       H  0.18792121  0.69051185  0.26721153     0.05700
C1145       C  0.30541261  0.77326373  0.42311017    -0.20100
C1146       C  0.33005020  0.76759576  0.42449276    -0.06700
C1147       C  0.34199245  0.76686519  0.44726425     0.14200
C1148       C  0.32951529  0.77395436  0.46785018    -0.20200
C1149       C  0.30538234  0.78160346  0.46604918    -0.06700
C1150       C  0.29297421  0.78039159  0.44352050     0.14100
C1151       C  0.26726070  0.78851797  0.44052819    -0.23500
H1152       H  0.29615891  0.77329333  0.40561450     0.15400
H1153       H  0.33918951  0.77534641  0.48508397     0.15500
C1154       C  0.36812758  0.76010895  0.44952985    -0.23500
H1155       H  0.26038810  0.78667782  0.42157626     0.05700
H1156       H  0.26615993  0.80771844  0.44541204     0.08900
H1157       H  0.25528010  0.77742756  0.45243474     0.08900
H1158       H  0.37943068  0.77269613  0.43832735     0.08900
H1159       H  0.37016474  0.74148343  0.44316430     0.08900
H1160       H  0.37490690  0.76086213  0.46860172     0.05700
C1161       C  0.41668163  0.76794966  0.31558575    -0.20100
C1162       C  0.41629220  0.76564562  0.34104582    -0.06700
C1163       C  0.43813752  0.76845764  0.35439706     0.14200
C1164       C  0.45961548  0.77478426  0.34207800    -0.20200
C1165       C  0.45975474  0.77855005  0.31667819    -0.06700
C1166       C  0.43799519  0.77471894  0.30332418     0.14100
C1167       C  0.43679879  0.77981853  0.27640240    -0.23500
H1168       H  0.39982459  0.76587127  0.30531621     0.15400
H1169       H  0.47604090  0.77868453  0.35252475     0.15500
C1170       C  0.43845995  0.76621730  0.38161766    -0.23500
H1171       H  0.41851049  0.77562337  0.26857740     0.05700
H1172       H  0.45005539  0.76878046  0.26721340     0.08900
H1173       H  0.44120062  0.79914035  0.27260400     0.08900
H1174       H  0.43198359  0.74787777  0.38724954     0.08900
H1175       H  0.42641301  0.77970893  0.38916851     0.08900
H1176       H  0.45697246  0.76926545  0.38939797     0.05700
C1177       C  0.35898761  0.72221815  0.27798396    -0.20100
C1178       C  0.34741163  0.74290161  0.28550268    -0.06700
C1179       C  0.33669237  0.75847399  0.26790446     0.14200
C1180       C  0.33888574  0.75348884  0.24343263    -0.20200
C1181       C  0.35074942  0.73308603  0.23587831    -0.06700
C1182       C  0.36052568  0.71688835  0.25338027     0.14100
C1183       C  0.37286991  0.69425028  0.24648313    -0.23500
H1184       H  0.36706767  0.71019521  0.29142801     0.15400
H1185       H  0.33104368  0.76567634  0.22999283     0.15500
C1186       C  0.32234693  0.78006390  0.27440608    -0.23500
H1187       H  0.38040839  0.68446440  0.26260338     0.05700
H1188       H  0.38802736  0.69864462  0.23418975     0.08900
H1189       H  0.35965349  0.68189173  0.23735414     0.08900
H1190       H  0.33441729  0.79392378  0.28286759     0.08900
H1191       H  0.30769560  0.77443369  0.28696756     0.08900
H1192       H  0.31366908  0.78870098  0.25819147     0.05700
C1193       C  0.23652693  0.72385137  0.34777481    -0.20100
C1194       C  0.22303852  0.74352197  0.35482666    -0.06700
C1195       C  0.23552126  0.76443717  0.36332971     0.14200
C1196       C  0.26085494  0.76523745  0.36383665    -0.20200
C1197       C  0.27431836  0.74578568  0.35644175    -0.06700
C1198       C  0.26198024  0.72469309  0.34843394     0.14100
C1199       C  0.27536040  0.70339407  0.33968577    -0.23500
H1200       H  0.22710323  0.70779882  0.34131179     0.15400
H1201       H  0.27028652  0.78138070  0.37006287     0.15500
C1202       C  0.22262842  0.78597905  0.37237213    -0.23500
H1203       H  0.26275363  0.68901827  0.33292777     0.05700
H1204       H  0.28633835  0.69547212  0.35478330     0.08900
H1205       H  0.28733612  0.70914683  0.32458909     0.08900
H1206       H  0.21027406  0.78035047  0.38718022     0.08900
H1207       H  0.21227865  0.79470506  0.35728299     0.08900
H1208       H  0.23549307  0.79983480  0.37972300     0.05700
C1209       C  0.31854424  0.70823277  0.08971582    -0.20100
C1210       C  0.34028942  0.72161107  0.09304286    -0.06700
C1211       C  0.35080200  0.73359709  0.07286210     0.14200
C1212       C  0.34050754  0.73002941  0.04957465    -0.20200
C1213       C  0.31956747  0.71539362  0.04615051    -0.06700
C1214       C  0.30797281  0.70516519  0.06660307     0.14100
C1215       C  0.28516608  0.68985302  0.06391617    -0.23500
H1216       H  0.30992355  0.69981030  0.10533896     0.15400
H1217       H  0.34970876  0.73739330  0.03379297     0.15500
C1218       C  0.37356057  0.74889682  0.07563746    -0.23500
H1219       H  0.27855412  0.68305126  0.08174126     0.05700
H1220       H  0.28851323  0.67408472  0.05259014     0.08900
H1221       H  0.27070714  0.70073022  0.05520331     0.08900
H1222       H  0.38818503  0.73799933  0.08406053     0.08900
H1223       H  0.37014048  0.76442662  0.08724711     0.08900
H1224       H  0.37991116  0.75611582  0.05787050     0.05700
C1225       C  0.27436915  0.65969298  0.96657030    -0.20100
C1226       C  0.28580355  0.68268563  0.96747427    -0.06700
C1227       C  0.29200262  0.69448568  0.94548973     0.14200
C1228       C  0.28858274  0.68234498  0.92351823    -0.20200
C1229       C  0.27878375  0.65867669  0.92282500    -0.06700
C1230       C  0.27040374  0.64774141  0.94450864     0.14100
C1231       C  0.25873772  0.62293778  0.94465208    -0.23500
H1232       H  0.27029567  0.65019501  0.98343686     0.15400
H1233       H  0.29402605  0.69126676  0.90673283     0.15500
C1234       C  0.30360208  0.71934843  0.94539298    -0.23500
H1235       H  0.25412684  0.61665883  0.96329050     0.05700
H1236       H  0.27128866  0.60994107  0.93706252     0.08900
H1237       H  0.24173022  0.62306951  0.93357779     0.08900
H1238       H  0.32099296  0.71921019  0.95585755     0.08900
H1239       H  0.29125613  0.73206405  0.95374122     0.08900
H1240       H  0.30739054  0.72604187  0.92669090     0.05700
C1241       C  0.21455367  0.77412086  0.06381810    -0.20100
C1242       C  0.20099359  0.76811212  0.04307054    -0.06700
C1243       C  0.17829453  0.75595062  0.04573213     0.14200
C1244       C  0.16886031  0.75187862  0.06902387    -0.20200
C1245       C  0.18130605  0.76030014  0.08970913    -0.06700
C1246       C  0.20498759  0.77066451  0.08705543     0.14100
C1247       C  0.22042415  0.77839576  0.10852668    -0.23500
H1248       H  0.23181980  0.78363839  0.06171982     0.15400
H1249       H  0.15117700  0.74316296  0.07089207     0.15500
C1250       C  0.16325604  0.74795084  0.02415323    -0.23500
H1251       H  0.23873451  0.78490681  0.10302952     0.05700
H1252       H  0.22284419  0.76291251  0.12126551     0.08900
H1253       H  0.21195281  0.79337535  0.11785567     0.08900
H1254       H  0.17256733  0.75155232  0.00677353     0.08900
H1255       H  0.14584642  0.75747791  0.02357274     0.08900
H1256       H  0.15944047  0.72825725  0.02573128     0.05700
C1257       C  0.24228588  0.79186352  0.95287877    -0.20100
C1258       C  0.24103337  0.80849086  0.97135044    -0.06700
C1259       C  0.24780471  0.83295211  0.96636685     0.14200
C1260       C  0.25253907  0.84062912  0.94242519    -0.20200
C1261       C  0.25098698  0.82434989  0.92349334    -0.06700
C1262       C  0.24715567  0.79949798  0.92902238     0.14100
C1263       C  0.24740031  0.78095416  0.90967091    -0.23500
H1264       H  0.23721601  0.77317446  0.95660092     0.15400
H1265       H  0.25635582  0.85953720  0.93841343     0.15500
C1266       C  0.24928486  0.85152545  0.98583329    -0.23500
H1267       H  0.24440378  0.76239413  0.91714475     0.05700
H1268       H  0.26532070  0.78170581  0.90096470     0.08900
H1269       H  0.23279538  0.78448029  0.89606426     0.08900
H1270       H  0.24600333  0.84362923  0.00414806     0.08900
H1271       H  0.23574734  0.86557140  0.98190807     0.08900
H1272       H  0.26767402  0.86012226  0.98618572     0.05700
C1273       C  0.23693392  0.73891802  0.00549703    -0.20100
C1274       C  0.24484856  0.76308365  0.00759334    -0.06700
C1275       C  0.27008188  0.76804949  0.00992209     0.14200
C1276       C  0.28649443  0.74912018  0.00863786    -0.20200
C1277       C  0.27861332  0.72492759  0.00646568    -0.06700
C1278       C  0.25331756  0.71984226  0.00566094     0.14100
C1279       C  0.24285604  0.69457957  0.00657483    -0.23500
H1280       H  0.21766027  0.73483788  0.00427590     0.15400
H1281       H  0.30575876  0.75323286  0.00994190     0.15500
C1282       C  0.28034070  0.79282141  0.01508427    -0.23500
H1283       H  0.22982226  0.69273458  0.02159013     0.05700
H1284       H  0.25678688  0.68098007  0.01021154     0.08900
H1285       H  0.23318125  0.69064845  0.98921063     0.08900
H1286       H  0.29204222  0.79200011  0.03169222     0.08900
H1287       H  0.26618284  0.80596144  0.01842147     0.08900
H1288       H  0.29141479  0.79944875  0.99963001     0.05700
C1289       C  0.06579831  0.71063112  0.34547668    -0.20100
C1290       C  0.07855723  0.73233712  0.34075847    -0.06700
C1291       C  0.06877996  0.74847322  0.32294246     0.14200
C1292       C  0.04938012  0.74060462  0.30777574    -0.20200
C1293       C  0.03998045  0.71690263  0.30946693    -0.06700
C1294       C  0.04618183  0.70315289  0.33064154     0.14100
C1295       C  0.03274953  0.68017079  0.33780153    -0.23500
H1296       H  0.07200750  0.69870179  0.36003423     0.15400
H1297       H  0.04298042  0.75269366  0.29367002     0.15500
C1298       C  0.07968956  0.77329139  0.31838436    -0.23500
H1299       H  0.02640778  0.68150800  0.35666944     0.05700
H1300       H  0.04498073  0.66470678  0.33692568     0.08900
H1301       H  0.01647495  0.67671248  0.32614785     0.08900
H1302       H  0.09855598  0.77200598  0.31220780     0.08900
H1303       H  0.07941976  0.78375138  0.33526098     0.08900
H1304       H  0.06946544  0.78343684  0.30410880     0.05700
C1305       C  0.06288128  0.79954434  0.17867411    -0.20100
C1306       C  0.04459316  0.78169567  0.18115739    -0.06700
C1307       C  0.04967597  0.75790496  0.17493188     0.14200
C1308       C  0.07307445  0.75260804  0.16683539    -0.20200
C1309       C  0.09145443  0.77068488  0.16407316    -0.06700
C1310       C  0.08588738  0.79465972  0.17015154     0.14100
C1311       C  0.10361239  0.81572186  0.16756956    -0.23500
H1312       H  0.05871611  0.81793472  0.18286019     0.15400
H1313       H  0.07695276  0.73418927  0.16262134     0.15500
C1314       C  0.03032914  0.73833562  0.17612453    -0.23500
H1315       H  0.09530497  0.83310751  0.17164835     0.05700
H1316       H  0.11003487  0.81719407  0.14865050     0.08900
H1317       H  0.11909800  0.81357708  0.18051013     0.08900
H1318       H  0.01468798  0.74329338  0.16424511     0.08900
H1319       H  0.02414466  0.73576677  0.19500554     0.08900
H1320       H  0.03708172  0.72087074  0.17007709     0.05700
C1321       C  0.98459649  0.76054960  0.23338951    -0.20100
C1322       C  0.00604705  0.77200985  0.22494175    -0.06700
C1323       C  0.02808812  0.76513300  0.23635092     0.14200
C1324       C  0.02861352  0.74413916  0.25108352    -0.20200
C1325       C  0.00726983  0.73303089  0.26015708    -0.06700
C1326       C  0.98494344  0.74275123  0.25212462     0.14100
C1327       C  0.96126096  0.73539246  0.26332802    -0.23500
H1328       H  0.96727398  0.76554961  0.22567847     0.15400
H1329       H  0.04607132  0.73713935  0.25642405     0.15500
C1330       C  0.05086027  0.78051560  0.23544639    -0.23500
H1331       H  0.95193954  0.75170361  0.26905229     0.05700
H1332       H  0.96381850  0.72393783  0.27982042     0.08900
H1333       H  0.94950368  0.72586894  0.24987476     0.08900
H1334       H  0.04774185  0.79826259  0.22651722     0.08900
H1335       H  0.06520406  0.77090182  0.22616327     0.08900
H1336       H  0.05732096  0.78424196  0.25422486     0.05700
C1337       C  0.75996255  0.51973184  0.25994617    -0.20100
C1338       C  0.76916660  0.49907069  0.27188917    -0.06700
C1339       C  0.76243677  0.47653495  0.26185278     0.14200
C1340       C  0.74326192  0.47508349  0.24459967    -0.20200
C1341       C  0.73364997  0.49576519  0.23303656    -0.06700
C1342       C  0.74475019  0.51819447  0.23917882     0.14100
C1343       C  0.74374598  0.54014342  0.22280375    -0.23500
H1344       H  0.76516815  0.53745698  0.26604465     0.15400
H1345       H  0.73675271  0.45741252  0.23961454     0.15500
C1346       C  0.77670693  0.45421431  0.26651467    -0.23500
H1347       H  0.76247679  0.54671523  0.21893393     0.05700
H1348       H  0.73419038  0.55474313  0.23170142     0.08900
H1349       H  0.73520681  0.53596763  0.20504160     0.08900
H1350       H  0.78184068  0.44668717  0.24893832     0.08900
H1351       H  0.79392195  0.45820662  0.27645032     0.08900
H1352       H  0.76559887  0.44038520  0.27638354     0.05700
C1353       C  0.55742398  0.69067360  0.23279872    -0.20100
C1354       C  0.54031346  0.67965806  0.24808467    -0.06700
C1355       C  0.54785296  0.66093246  0.26416031     0.14200
C1356       C  0.57162920  0.65245756  0.26318851    -0.20200
C1357       C  0.58815453  0.66190655  0.24618808    -0.06700
C1358       C  0.58109663  0.68207994  0.23149548     0.14100
C1359       C  0.59826004  0.69491477  0.21431702    -0.23500
H1360       H  0.55163172  0.70484452  0.22030536     0.15400
H1361       H  0.57700741  0.63784158  0.27532312     0.15500
C1362       C  0.53085659  0.64911119  0.28208671    -0.23500
H1363       H  0.58997268  0.71089873  0.20537134     0.05700
H1364       H  0.60331269  0.68270102  0.19975559     0.08900
H1365       H  0.61468673  0.70132423  0.22441492     0.08900
H1366       H  0.52827992  0.62973539  0.27797454     0.08900
H1367       H  0.51286919  0.65751962  0.28179515     0.08900
H1368       H  0.53870536  0.65076583  0.30068970     0.05700
C1369       C  0.68262548  0.53691125  0.24544771    -0.20100
C1370       C  0.68957304  0.53294518  0.22157618    -0.06700
C1371       C  0.68699896  0.55182551  0.20406549     0.14200
C1372       C  0.67709051  0.57356811  0.21055616    -0.20200
C1373       C  0.66968294  0.57779764  0.23428273    -0.06700
C1374       C  0.67300096  0.55915046  0.25213837     0.14100
C1375       C  0.66605999  0.56214369  0.27809695    -0.23500
H1376       H  0.68394924  0.52226252  0.25868898     0.15400
H1377       H  0.67550794  0.58754100  0.19661493     0.15500
C1378       C  0.69442941  0.54970818  0.17801647    -0.23500
H1379       H  0.66892756  0.54546277  0.28916036     0.05700
H1380       H  0.64660347  0.56648034  0.27891657     0.08900
H1381       H  0.67735416  0.57672573  0.28637593     0.08900
H1382       H  0.67828807  0.55143454  0.16582124     0.08900
H1383       H  0.70307751  0.53246446  0.17430629     0.08900
H1384       H  0.70773636  0.56439325  0.17348056     0.05700
C1385       C  0.93919544  0.66621471  0.24100296    -0.20100
C1386       C  0.92731708  0.66034023  0.26288225    -0.06700
C1387       C  0.94020235  0.66432549  0.28509191     0.14200
C1388       C  0.96378740  0.67454328  0.28470412    -0.20200
C1389       C  0.97508227  0.68110512  0.26290533    -0.06700
C1390       C  0.96288323  0.67635359  0.24080434     0.14100
C1391       C  0.97482379  0.68229671  0.21706369    -0.23500
H1392       H  0.92971278  0.66349038  0.22385778     0.15400
H1393       H  0.97367072  0.67739892  0.30163076     0.15500
C1394       C  0.92965060  0.65768255  0.30940677    -0.23500
H1395       H  0.96280867  0.67770458  0.20135327     0.05700
H1396       H  0.99166454  0.67199578  0.21578121     0.08900
H1397       H  0.97944279  0.70186212  0.21588648     0.08900
H1398       H  0.92345778  0.63849326  0.30969412     0.08900
H1399       H  0.91434633  0.66944703  0.31317339     0.08900
H1400       H  0.94317096  0.66003442  0.32441963     0.05700
C1401       C  0.83867104  0.56378995  0.26217234    -0.20100
C1402       C  0.83218147  0.58554749  0.27255403    -0.06700
C1403       C  0.81167184  0.58532880  0.28776185     0.14200
C1404       C  0.79927276  0.56367591  0.29290450    -0.20200
C1405       C  0.80716369  0.54173706  0.28467762    -0.06700
C1406       C  0.82672725  0.54174310  0.26855943     0.14100
C1407       C  0.83594623  0.51879013  0.25873223    -0.23500
H1408       H  0.85382761  0.56378171  0.25003027     0.15400
H1409       H  0.78427757  0.56350975  0.30529975     0.15500
C1410       C  0.80231380  0.60763355  0.29905307    -0.23500
H1411       H  0.83501320  0.51967821  0.23861363     0.05700
H1412       H  0.82518455  0.50271277  0.26484568     0.08900
H1413       H  0.85506487  0.51649750  0.26475712     0.08900
H1414       H  0.79710309  0.62066762  0.28465704     0.08900
H1415       H  0.81607163  0.61564287  0.31161336     0.08900
H1416       H  0.78586798  0.60375042  0.30985688     0.05700
C1417       C  0.76921250  0.67017769  0.26141833    -0.20100
C1418       C  0.78247009  0.65358666  0.24872288    -0.06700
C1419       C  0.77001578  0.63499268  0.23594519     0.14200
C1420       C  0.74462506  0.63390533  0.23578244    -0.20200
C1421       C  0.73153131  0.65040898  0.24862196    -0.06700
C1422       C  0.74385409  0.66880050  0.26154545     0.14100
C1423       C  0.73029410  0.68724540  0.27507965    -0.23500
H1424       H  0.77877409  0.68423055  0.27137808     0.15400
H1425       H  0.73490568  0.61978385  0.22604510     0.15500
C1426       C  0.78323448  0.61552024  0.22352073    -0.23500
H1427       H  0.74276253  0.70081795  0.28351611     0.05700
H1428       H  0.71968759  0.67826389  0.28972686     0.08900
H1429       H  0.71780632  0.69687908  0.26245027     0.08900
H1430       H  0.79541261  0.60622883  0.23674916     0.08900
H1431       H  0.79396061  0.62342272  0.20839748     0.08900
H1432       H  0.77052918  0.60172549  0.21579116     0.05700
C1433       C  0.57132134  0.83275724  0.26364811    -0.20100
C1434       C  0.58763716  0.82856078  0.28319439    -0.06700
C1435       C  0.57896787  0.81512938  0.30371308     0.14200
C1436       C  0.55489712  0.80610666  0.30370704    -0.20200
C1437       C  0.53852091  0.81131185  0.28469726    -0.06700
C1438       C  0.54682791  0.82510730  0.26452297     0.14100
C1439       C  0.53016969  0.83278371  0.24396137    -0.23500
H1440       H  0.57745043  0.84287127  0.24779540     0.15400
H1441       H  0.54817393  0.79652458  0.31965192     0.15500
C1442       C  0.59431424  0.81085000  0.32628272    -0.23500
H1443       H  0.53634427  0.82521081  0.22678431     0.05700
H1444       H  0.53057835  0.85273915  0.24220797     0.08900
H1445       H  0.51111144  0.82678043  0.24665043     0.08900
H1446       H  0.59963974  0.82836298  0.33437976     0.08900
H1447       H  0.61072246  0.80094699  0.32203368     0.08900
H1448       H  0.58441750  0.80003994  0.34027490     0.05700
C1449       C  0.67146162  0.76049299  0.24613072    -0.20100
C1450       C  0.65854240  0.76861436  0.26577903    -0.06700
C1451       C  0.64645463  0.75179565  0.28117802     0.14200
C1452       C  0.64793126  0.72721360  0.27672461    -0.20200
C1453       C  0.66070976  0.71903728  0.25697910    -0.06700
C1454       C  0.67265040  0.73592585  0.24139384     0.14100
C1455       C  0.68701044  0.72842673  0.22001524    -0.23500
H1456       H  0.68076337  0.77350992  0.23442815     0.15400
H1457       H  0.63842015  0.71430076  0.28836903     0.15500
C1458       C  0.63084723  0.75958602  0.30141739    -0.23500
H1459       H  0.69642360  0.74405024  0.21105559     0.05700
H1460       H  0.67476865  0.72006156  0.20620963     0.08900
H1461       H  0.70098650  0.71549815  0.22602387     0.08900
H1462       H  0.61657428  0.77140845  0.29379700     0.08900
H1463       H  0.64200825  0.76927030  0.31521364     0.08900
H1464       H  0.62171836  0.74401399  0.31074737     0.05700
C1465       C  0.94202523  0.83675122  0.23776232    -0.20100
C1466       C  0.92066506  0.83281376  0.22372312    -0.06700
C1467       C  0.92139948  0.81616853  0.20448212     0.14200
C1468       C  0.94308336  0.80502020  0.19946648    -0.20200
C1469       C  0.96466633  0.81034137  0.21213860    -0.06700
C1470       C  0.96412413  0.82613952  0.23178767     0.14100
C1471       C  0.98701026  0.83238750  0.24577831    -0.23500
H1472       H  0.94163556  0.84876151  0.25292270     0.15400
H1473       H  0.94367237  0.79310984  0.18420105     0.15500
C1474       C  0.89958796  0.80954007  0.18882568    -0.23500
H1475       H  0.98364928  0.84505633  0.26052446     0.05700
H1476       H  0.00049831  0.84097385  0.23344528     0.08900
H1477       H  0.99464746  0.81575280  0.25402521     0.08900
H1478       H  0.89295915  0.82562501  0.17870913     0.08900
H1479       H  0.88522775  0.80134193  0.20019438     0.08900
H1480       H  0.90378342  0.79605464  0.17509048     0.05700
C1481       C  0.87447402  0.76303213  0.25620163    -0.20100
C1482       C  0.85781406  0.77366242  0.23994616    -0.06700
C1483       C  0.84459001  0.75895770  0.22332414     0.14200
C1484       C  0.84704208  0.73390525  0.22483183    -0.20200
C1485       C  0.86226354  0.72335699  0.24240852    -0.06700
C1486       C  0.87692727  0.73807650  0.25762073     0.14100
C1487       C  0.89528577  0.72759716  0.27529478    -0.23500
H1488       H  0.88541588  0.77429248  0.26818799     0.15400
H1489       H  0.83601188  0.72240662  0.21315007     0.15500
C1490       C  0.82707041  0.76917409  0.20470574    -0.23500
H1491       H  0.90660290  0.74187886  0.28409144     0.05700
H1492       H  0.90751420  0.71574925  0.26561157     0.08900
H1493       H  0.88612679  0.71706492  0.28991965     0.08900
H1494       H  0.83696459  0.78096876  0.19152452     0.08900
H1495       H  0.81313443  0.77956903  0.21378914     0.08900
H1496       H  0.81754584  0.75480209  0.19423262     0.05700
C1497       C  0.76645650  0.83290123  0.24017213    -0.20100
C1498       C  0.78236861  0.84002049  0.25905888    -0.06700
C1499       C  0.77265481  0.84568148  0.28172006     0.14200
C1500       C  0.74740213  0.84486305  0.28439933    -0.20200
C1501       C  0.73152619  0.83899829  0.26501106    -0.06700
C1502       C  0.74133070  0.83233799  0.24273282     0.14100
C1503       C  0.72571149  0.82400561  0.22158963    -0.23500
H1504       H  0.77370750  0.82788113  0.22297477     0.15400
H1505       H  0.74001460  0.84934980  0.30169468     0.15500
C1506       C  0.78845502  0.85319262  0.30299554    -0.23500
H1507       H  0.73670680  0.81772553  0.20647927     0.05700
H1508       H  0.71476602  0.83905527  0.21424546     0.08900
H1509       H  0.71367155  0.80871987  0.22744554     0.08900
H1510       H  0.79946917  0.86951287  0.29800751     0.08900
H1511       H  0.80048916  0.83830768  0.30862819     0.08900
H1512       H  0.77758529  0.85756625  0.31892891     0.05700
C1513       C  0.70061875  0.22769174  0.55921209    -0.20100
C1514       C  0.68618633  0.21375319  0.54347589    -0.06700
C1515       C  0.66105353  0.21084061  0.54832305     0.14200
C1516       C  0.65207133  0.21826748  0.57050553    -0.20200
C1517       C  0.66693416  0.23061429  0.58714717    -0.06700
C1518       C  0.69110227  0.23689784  0.58049407     0.14100
C1519       C  0.70784481  0.25234874  0.59578132    -0.23500
H1520       H  0.71969557  0.23044542  0.55558807     0.15400
H1521       H  0.63342585  0.21393677  0.57503547     0.15500
C1522       C  0.64322060  0.19955301  0.53059540    -0.23500
H1523       H  0.71475086  0.26782305  0.58459288     0.05700
H1524       H  0.72341778  0.24168195  0.60244275     0.08900
H1525       H  0.69880895  0.25992833  0.61136718     0.08900
H1526       H  0.63576155  0.18236772  0.53839122     0.08900
H1527       H  0.65136089  0.19607589  0.51287016     0.08900
H1528       H  0.62810953  0.21199164  0.52696354     0.05700
C1529       C  0.83050145  0.27531396  0.54411454    -0.20100
C1530       C  0.80498067  0.27508190  0.54542458    -0.06700
C1531       C  0.79401820  0.26400936  0.56587813     0.14200
C1532       C  0.80875981  0.25485464  0.58484764    -0.20200
C1533       C  0.83414354  0.25754205  0.58457104    -0.06700
C1534       C  0.84518043  0.26719407  0.56366230     0.14100
C1535       C  0.87229685  0.26999817  0.56252410    -0.23500
H1536       H  0.83903050  0.28399542  0.52856769     0.15400
H1537       H  0.80022585  0.24760566  0.60105983     0.15500
C1538       C  0.76707974  0.26336680  0.56942014    -0.23500
H1539       H  0.87808272  0.27791395  0.54483496     0.05700
H1540       H  0.88057410  0.25210062  0.56498473     0.08900
H1541       H  0.87915765  0.28199890  0.57709379     0.08900
H1542       H  0.75694247  0.27222616  0.55437136     0.08900
H1543       H  0.76294446  0.27274103  0.58633147     0.08900
H1544       H  0.76050641  0.24435105  0.57107149     0.05700
C1545       C  0.73576852  0.26965655  0.50585843    -0.20100
C1546       C  0.76109015  0.26713011  0.50620468    -0.06700
C1547       C  0.77020472  0.24378935  0.50403514     0.14200
C1548       C  0.75407693  0.22364123  0.50412629    -0.20200
C1549       C  0.72876258  0.22604257  0.50503764    -0.06700
C1550       C  0.71957556  0.24959878  0.50467203     0.14100
C1551       C  0.69293688  0.25431389  0.50226102    -0.23500
H1552       H  0.72853694  0.28753532  0.50676633     0.15400
H1553       H  0.76139720  0.20577955  0.50361179     0.15500
C1554       C  0.79667514  0.23960186  0.50065899    -0.23500
H1555       H  0.68963758  0.26638793  0.48627753     0.05700
H1556       H  0.68678130  0.26323516  0.51874383     0.08900
H1557       H  0.68186348  0.23764718  0.49944650     0.08900
H1558       H  0.80396378  0.22897790  0.51633256     0.08900
H1559       H  0.80741572  0.25665418  0.49868907     0.08900
H1560       H  0.79898925  0.22939037  0.48384571     0.05700
C1561       C  0.71675317  0.17902956  0.42700729    -0.20100
C1562       C  0.73355611  0.16075632  0.42408381    -0.06700
C1563       C  0.74765699  0.15328986  0.44449853     0.14200
C1564       C  0.74343300  0.16308565  0.46733821    -0.20200
C1565       C  0.72594297  0.18063533  0.47034949    -0.06700
C1566       C  0.71286177  0.18906753  0.44973569     0.14100
C1567       C  0.69389071  0.20782038  0.45184363    -0.23500
H1568       H  0.70650311  0.18554523  0.41132882     0.15400
H1569       H  0.75298890  0.15611919  0.48325843     0.15500
C1570       C  0.76628108  0.13417275  0.44266138    -0.23500
H1571       H  0.68495941  0.21201027  0.43407348     0.05700
H1572       H  0.70247174  0.22471828  0.45860476     0.08900
H1573       H  0.67968819  0.20135196  0.46455282     0.08900
H1574       H  0.78115878  0.14070950  0.43081338     0.08900
H1575       H  0.75770175  0.11758237  0.43511897     0.08900
H1576       H  0.77447144  0.12944468  0.46065050     0.05700
C1577       C  0.73514749  0.14910353  0.26612351    -0.20100
C1578       C  0.75527063  0.15311006  0.28166926    -0.06700
C1579       C  0.77839627  0.15709142  0.27140681     0.14200
C1580       C  0.78052624  0.15701780  0.24615670    -0.20200
C1581       C  0.76048142  0.15249367  0.23062165    -0.06700
C1582       C  0.73738463  0.14830693  0.24092340     0.14100
C1583       C  0.71489416  0.14248900  0.22593057    -0.23500
H1584       H  0.71742264  0.14588333  0.27377263     0.15400
H1585       H  0.79826965  0.16022260  0.23854862     0.15500
C1586       C  0.80111042  0.16143657  0.28655309    -0.23500
H1587       H  0.69873854  0.13930627  0.23732792     0.05700
H1588       H  0.71745314  0.12581138  0.21569636     0.08900
H1589       H  0.71085081  0.15775430  0.21328530     0.08900
H1590       H  0.80500451  0.14522069  0.29795110     0.08900
H1591       H  0.79899571  0.17723771  0.29813586     0.08900
H1592       H  0.81720183  0.16517339  0.27519988     0.05700
C1593       C  0.71894202  0.40923912  0.19183263    -0.20100
C1594       C  0.73515097  0.41057863  0.17252561    -0.06700
C1595       C  0.74612751  0.43312716  0.16637659     0.14200
C1596       C  0.73884974  0.45401896  0.17818830    -0.20200
C1597       C  0.72122999  0.45269001  0.19626390    -0.06700
C1598       C  0.71181491  0.42982541  0.20365538     0.14100
C1599       C  0.69329806  0.42712229  0.22336650    -0.23500
H1600       H  0.71127399  0.39184872  0.19740298     0.15400
H1601       H  0.74567666  0.47157676  0.17215530     0.15500
C1602       C  0.76433690  0.43537644  0.14654761    -0.23500
H1603       H  0.68832360  0.40792130  0.22719798     0.05700
H1604       H  0.67646833  0.43642400  0.21791819     0.08900
H1605       H  0.70062519  0.43487905  0.24043286     0.08900
H1606       H  0.75615576  0.42860991  0.12937127     0.08900
H1607       H  0.78046390  0.42472801  0.15156904     0.08900
H1608       H  0.77047481  0.45438036  0.14342278     0.05700
C1609       C  0.77988747  0.26292624  0.14946745    -0.20100
C1610       C  0.75695945  0.27121497  0.15533697    -0.06700
C1611       C  0.73797479  0.25407277  0.16006808     0.14200
C1612       C  0.74269230  0.22952306  0.15931222    -0.20200
C1613       C  0.76565889  0.22124822  0.15394183    -0.06700
C1614       C  0.78450724  0.23823217  0.14862165     0.14100
C1615       C  0.80931395  0.23070453  0.14143985    -0.23500
H1616       H  0.79436021  0.27585448  0.14537571     0.15400
H1617       H  0.72822880  0.21658573  0.16343425     0.15500
C1618       C  0.71266682  0.26100869  0.16637999    -0.23500
H1619       H  0.82114253  0.24643961  0.13637305     0.05700
H1620       H  0.80771110  0.21886809  0.12553086     0.08900
H1621       H  0.81840103  0.22110173  0.15680345     0.08900
H1622       H  0.70411064  0.27088683  0.15086449     0.08900
H1623       H  0.71326310  0.27224034  0.18276364     0.08900
H1624       H  0.70076597  0.24503351  0.17040655     0.05700
C1625       C  0.74933061  0.43054601  0.33533841    -0.20100
C1626       C  0.76943958  0.41593506  0.34057116    -0.06700
C1627       C  0.79293546  0.42540661  0.33492045     0.14200
C1628       C  0.79541073  0.44857757  0.32468135    -0.20200
C1629       C  0.77551556  0.46319591  0.31995595    -0.06700
C1630       C  0.75212474  0.45409124  0.32535637     0.14100
C1631       C  0.72993998  0.46881133  0.32096786    -0.23500
H1632       H  0.73121845  0.42362330  0.33901435     0.15400
H1633       H  0.81340497  0.45593186  0.32103609     0.15500
C1634       C  0.81593114  0.41180660  0.33968983    -0.23500
H1635       H  0.73427371  0.48686084  0.31292349     0.05700
H1636       H  0.71732987  0.45927835  0.30826482     0.08900
H1637       H  0.72071170  0.47124382  0.33837683     0.08900
H1638       H  0.81610006  0.39567330  0.32822546     0.08900
H1639       H  0.81749513  0.40658051  0.35919598     0.08900
H1640       H  0.83239708  0.42282245  0.33522815     0.05700
C1641       C  0.75126679  0.34298015  0.44186571    -0.20100
C1642       C  0.76375343  0.33104866  0.42405089    -0.06700
C1643       C  0.77587968  0.30957193  0.43075351     0.14200
C1644       C  0.77651889  0.30163876  0.45513862    -0.20200
C1645       C  0.76557193  0.31457225  0.47318033    -0.06700
C1646       C  0.75212076  0.33510441  0.46630492     0.14100
C1647       C  0.73864720  0.34922102  0.48440743    -0.23500
H1648       H  0.74119912  0.35886709  0.43680380     0.15400
H1649       H  0.78697468  0.28605265  0.46037148     0.15500
C1650       C  0.78797856  0.29458121  0.41234185    -0.23500
H1651       H  0.71928907  0.35007424  0.47869782     0.05700
H1652       H  0.74646583  0.36782207  0.48520317     0.08900
H1653       H  0.73931351  0.34093360  0.50288117     0.08900
H1654       H  0.80316671  0.30496742  0.40392879     0.08900
H1655       H  0.77455042  0.28898418  0.39821372     0.08900
H1656       H  0.79557735  0.27796318  0.42069109     0.05700
C1657       C  0.72977882  0.23463912  0.36413495    -0.20100
C1658       C  0.74842131  0.22197587  0.35374264    -0.06700
C1659       C  0.76744239  0.23479234  0.34209143     0.14200
C1660       C  0.76759931  0.25993998  0.34162591    -0.20200
C1661       C  0.74925715  0.27277998  0.35240978    -0.06700
C1662       C  0.72994586  0.25990178  0.36373823     0.14100
C1663       C  0.70983966  0.27238577  0.37601418    -0.23500
H1664       H  0.71512762  0.22465772  0.37290032     0.15400
H1665       H  0.78224752  0.26965783  0.33259965     0.15500
C1666       C  0.78709226  0.22220395  0.32919163    -0.23500
H1667       H  0.69693585  0.25932933  0.38470716     0.05700
H1668       H  0.69939461  0.28321926  0.36248654     0.08900
H1669       H  0.71752878  0.28420199  0.39036771     0.08900
H1670       H  0.77876749  0.21025334  0.31530575     0.08900
H1671       H  0.79809386  0.21150083  0.34234601     0.08900
H1672       H  0.79961646  0.23515735  0.31982890     0.05700
C1673       C  0.73516062  0.33006944  0.26920234    -0.20100
C1674       C  0.75150241  0.34656499  0.27995648    -0.06700
C1675       C  0.76556990  0.36237039  0.26523617     0.14200
C1676       C  0.76369030  0.36053974  0.23997783    -0.20200
C1677       C  0.74788758  0.34352073  0.22909618    -0.06700
C1678       C  0.73317172  0.32827069  0.24391238     0.14100
C1679       C  0.71611087  0.30942955  0.23336624    -0.23500
H1680       H  0.72437443  0.31807959  0.28070563     0.15400
H1681       H  0.77451939  0.37262535  0.22861880     0.15500
C1682       C  0.78195303  0.38165885  0.27605474    -0.23500
H1683       H  0.70721547  0.29822493  0.24773272     0.05700
H1684       H  0.72624843  0.29727134  0.22182250     0.08900
H1685       H  0.70159544  0.31817313  0.22241923     0.08900
H1686       H  0.79663845  0.37336886  0.28713183     0.08900
H1687       H  0.77129986  0.39333300  0.28764571     0.08900
H1688       H  0.79055013  0.39328552  0.26183205     0.05700
C1689       C  0.73281984  0.05137508  0.30690615    -0.20100
C1690       C  0.72815395  0.03242871  0.32335120    -0.06700
C1691       C  0.73218663  0.03631907  0.34854070     0.14200
C1692       C  0.73804473  0.05968460  0.35666503    -0.20200
C1693       C  0.73994002  0.07916968  0.34024813    -0.06700
C1694       C  0.73841961  0.07468303  0.31503848     0.14100
C1695       C  0.74139282  0.09470365  0.29653753    -0.23500
H1696       H  0.72969413  0.04849550  0.28771378     0.15400
H1697       H  0.73983886  0.06296230  0.37590930     0.15500
C1698       C  0.72969966  0.01602142  0.36705293    -0.23500
H1699       H  0.73976343  0.08815030  0.27769843     0.05700
H1700       H  0.75957746  0.10342009  0.29887985     0.08900
H1701       H  0.72702346  0.10791075  0.29885709     0.08900
H1702       H  0.74272492  0.00184361  0.36330856     0.08900
H1703       H  0.71109228  0.00807943  0.36680135     0.08900
H1704       H  0.73365273  0.02229410  0.38572238     0.05700
C1705       C  0.70369844  0.94064568  0.29562887    -0.20100
C1706       C  0.69060866  0.95921377  0.28456624    -0.06700
C1707       C  0.66982871  0.95332951  0.27017811     0.14200
C1708       C  0.66187245  0.92909527  0.26843664    -0.20200
C1709       C  0.67374044  0.91068074  0.28140865    -0.06700
C1710       C  0.69548439  0.91655309  0.29446347     0.14100
C1711       C  0.71045635  0.89755726  0.30703232    -0.23500
H1712       H  0.71945229  0.94520714  0.30684364     0.15400
H1713       H  0.64582908  0.92461908  0.25762957     0.15500
C1714       C  0.65585000  0.97269135  0.25695204    -0.23500
H1715       H  0.72742466  0.90526863  0.31520341     0.05700
H1716       H  0.71558170  0.88419248  0.29363927     0.08900
H1717       H  0.70011811  0.88856621  0.32185640     0.08900
H1718       H  0.66806136  0.98301611  0.24455464     0.08900
H1719       H  0.64820315  0.98516752  0.26998020     0.08900
H1720       H  0.64057036  0.96497570  0.24596361     0.05700
C1721       C  0.78638647  0.03810661  0.18062884    -0.20100
C1722       C  0.78705790  0.03761320  0.20625456    -0.06700
C1723       C  0.78019582  0.05831333  0.21844728     0.14200
C1724       C  0.77491620  0.07940625  0.20487159    -0.20200
C1725       C  0.77680358  0.08044583  0.17946667    -0.06700
C1726       C  0.78178588  0.05937779  0.16714437     0.14100
C1727       C  0.78366671  0.05976654  0.13996970    -0.23500
H1728       H  0.79193849  0.02235119  0.17118345     0.15400
H1729       H  0.77073010  0.09565770  0.21425602     0.15500
C1730       C  0.78010354  0.05880566  0.24571612    -0.23500
H1731       H  0.78795843  0.04178168  0.13310358     0.05700
H1732       H  0.79822599  0.07276157  0.13431381     0.08900
H1733       H  0.76620443  0.06532430  0.13154181     0.08900
H1734       H  0.79818446  0.05417051  0.25333759     0.08900
H1735       H  0.76625839  0.04574955  0.25270355     0.08900
H1736       H  0.77565009  0.07687002  0.25225530     0.05700
C1737       C  0.80784614  0.94568076  0.23474257    -0.20100
C1738       C  0.82192628  0.96363174  0.24601797    -0.06700
C1739       C  0.84275128  0.95690936  0.25978284     0.14200
C1740       C  0.85049923  0.93293574  0.25951187    -0.20200
C1741       C  0.83796189  0.91554814  0.24569887    -0.06700
C1742       C  0.81545968  0.92176057  0.23446721     0.14100
C1743       C  0.79905777  0.90333133  0.22229294    -0.23500
H1744       H  0.79175454  0.95074129  0.22445611     0.15400
H1745       H  0.86692121  0.92802233  0.26929085     0.15500
C1746       C  0.85690991  0.97510298  0.27463163    -0.23500
H1747       H  0.78171343  0.91117875  0.21589848     0.05700
H1748       H  0.79457969  0.88852074  0.23538988     0.08900
H1749       H  0.80781994  0.89610626  0.20622227     0.08900
H1750       H  0.84472653  0.98324758  0.28771056     0.08900
H1751       H  0.86489804  0.98953935  0.26287565     0.08900
H1752       H  0.87197283  0.96665757  0.28508689     0.05700
C1753       C  0.78001206  0.99527768  0.27451411    -0.20100
C1754       C  0.77660914  0.99748559  0.24920267    -0.06700
C1755       C  0.75253848  0.99674415  0.23974755     0.14200
C1756       C  0.73286987  0.99632397  0.25577392    -0.20200
C1757       C  0.73640290  0.99512441  0.28114568    -0.06700
C1758       C  0.76037336  0.99325480  0.29038483     0.14100
C1759       C  0.76580314  0.98786266  0.31671721    -0.23500
H1760       H  0.79828826  0.99495328  0.28201756     0.15400
H1761       H  0.71455544  0.99682418  0.24838590     0.15500
C1762       C  0.74694244  0.99530858  0.21302752    -0.23500
H1763       H  0.77551084  0.00350329  0.32496579     0.05700
H1764       H  0.74918919  0.98341174  0.32691946     0.08900
H1765       H  0.77741749  0.97188883  0.31841970     0.08900
H1766       H  0.76340080  0.99314544  0.20226521     0.08900
H1767       H  0.73758184  0.01177940  0.20663197     0.08900
H1768       H  0.73489376  0.97936127  0.20961011     0.05700
C1769       C  0.73471695  0.30315830  0.05251505    -0.20100
C1770       C  0.75354011  0.31138480  0.03759417    -0.06700
C1771       C  0.77053846  0.32856544  0.04679576     0.14200
C1772       C  0.76782420  0.33764635  0.07023787    -0.20200
C1773       C  0.74812175  0.33050661  0.08476290    -0.06700
C1774       C  0.73165464  0.31243754  0.07577693     0.14100
C1775       C  0.71079005  0.30245004  0.09044806    -0.23500
H1776       H  0.72137287  0.29041462  0.04527754     0.15400
H1777       H  0.78101168  0.35073719  0.07708374     0.15500
C1778       C  0.79155046  0.33743285  0.03176460    -0.23500
H1779       H  0.70046690  0.28799118  0.08082842     0.05700
H1780       H  0.69793443  0.31690620  0.09392746     0.08900
H1781       H  0.71767355  0.29455511  0.10784490     0.08900
H1782       H  0.78493193  0.34666003  0.01495589     0.08900
H1783       H  0.80258587  0.32195322  0.02687267     0.08900
H1784       H  0.80347135  0.35039123  0.04177315     0.05700
C1785       C  0.71445125  0.25916393  0.92223556    -0.20100
C1786       C  0.68910038  0.26080397  0.92298703    -0.06700
C1787       C  0.67858925  0.26776918  0.94464819     0.14200
C1788       C  0.69372577  0.27462507  0.96439817    -0.20200
C1789       C  0.71920526  0.27512330  0.96284501    -0.06700
C1790       C  0.72958641  0.26654820  0.94172135     0.14100
C1791       C  0.75660205  0.26685534  0.93899663    -0.23500
H1792       H  0.72256667  0.25378522  0.90556179     0.15400
H1793       H  0.68564797  0.28161811  0.98042292     0.15500
C1794       C  0.65154501  0.26906454  0.94644459    -0.23500
H1795       H  0.76160983  0.26001592  0.92110845     0.05700
H1796       H  0.76487657  0.25523236  0.95332925     0.08900
H1797       H  0.76411277  0.28550957  0.94055860     0.08900
H1798       H  0.64311130  0.25102014  0.94320828     0.08900
H1799       H  0.64448224  0.28210769  0.93266317     0.08900
H1800       H  0.64617768  0.27490838  0.96462521     0.05700
C1801       C  0.77365139  0.15809779  0.04457605    -0.20100
C1802       C  0.79098460  0.17657342  0.03985421    -0.06700
C1803       C  0.80482569  0.18591987  0.05948348     0.14200
C1804       C  0.80119067  0.17647447  0.08304215    -0.20200
C1805       C  0.78410611  0.15776604  0.08776801    -0.06700
C1806       C  0.76996976  0.14863057  0.06818134     0.14100
C1807       C  0.75196607  0.12804775  0.07173858    -0.23500
H1808       H  0.76372352  0.15022309  0.02942233     0.15400
H1809       H  0.81183039  0.18386598  0.09796820     0.15500
C1810       C  0.82430952  0.20503587  0.05561381    -0.23500
H1811       H  0.74393722  0.12197565  0.05421841     0.05700
H1812       H  0.73689464  0.13368147  0.08307832     0.08900
H1813       H  0.76108878  0.11249829  0.08061430     0.08900
H1814       H  0.81602420  0.22174289  0.04844470     0.08900
H1815       H  0.83776973  0.19878876  0.04267088     0.08900
H1816       H  0.83411099  0.20949199  0.07278581     0.05700
C1817       C  0.81706978  0.22488967  0.94809755    -0.20100
C1818       C  0.83023750  0.21064520  0.96460980    -0.06700
C1819       C  0.85515290  0.20708529  0.96016496     0.14200
C1820       C  0.86499588  0.21441935  0.93781545    -0.20200
C1821       C  0.85127767  0.22706954  0.92045220    -0.06700
C1822       C  0.82752546  0.23381757  0.92648402     0.14100
C1823       C  0.81217050  0.24941075  0.91010226    -0.23500
H1824       H  0.79814526  0.22792954  0.95134320     0.15400
H1825       H  0.88332374  0.20962872  0.93367329     0.15500
C1826       C  0.87171872  0.19489029  0.97841980    -0.23500
H1827       H  0.80617041  0.26503233  0.92036154     0.05700
H1828       H  0.79605635  0.23888345  0.90355182     0.08900
H1829       H  0.82208765  0.25685723  0.89439860     0.08900
H1830       H  0.86301077  0.19129760  0.99610547     0.08900
H1831       H  0.88785882  0.20675010  0.98194458     0.08900
H1832       H  0.87774803  0.17763192  0.97115662     0.05700
C1833       C  0.78571949  0.26676561  0.00338030    -0.20100
C1834       C  0.76023981  0.26465756  0.00393464    -0.06700
C1835       C  0.74953601  0.24134106  0.00611820     0.14200
C1836       C  0.76420943  0.22094933  0.00577385    -0.20200
C1837       C  0.78963916  0.22297443  0.00411037    -0.06700
C1838       C  0.80049617  0.24638817  0.00394605     0.14100
C1839       C  0.82751504  0.25058110  0.00512889    -0.23500
H1840       H  0.79418500  0.28455450  0.00207180     0.15400
H1841       H  0.75562310  0.20318337  0.00650791     0.15500
C1842       C  0.72274870  0.23742645  0.00930255    -0.23500
H1843       H  0.83238934  0.26189416  0.02091751     0.05700
H1844       H  0.83357715  0.26010877  0.98832414     0.08900
H1845       H  0.83747362  0.23362913  0.00748697     0.08900
H1846       H  0.71487503  0.22753619  0.99362410     0.08900
H1847       H  0.71319999  0.25457329  0.01096381     0.08900
H1848       H  0.71953199  0.22660228  0.02615811     0.05700
loop_ 
_geom_bond_atom_site_label_1 
_geom_bond_atom_site_label_2 
_geom_bond_distance 
_geom_bond_site_symmetry_2 
_ccdc_geom_bond_type 
N1            C5   1.371       .  A
N1            C2   1.373   1_554  A
N1         C1837   1.460       .  S
C2            C3   1.383       .  A
C2         C1818   1.495       .  S
C3            C4   1.362   1_556  A
C3            H6   1.083       .  S
C4            C5   1.379       .  A
C4            H7   1.083       .  S
C5         C1802   1.489       .  S
N8           C12   1.370       .  A
N8            C9   1.369   1_554  A
N8         C1834   1.456       .  S
C9           C10   1.378       .  A
C9         C1789   1.492       .  S
C10          C11   1.366       .  A
C10          H13   1.082       .  S
C11          C12   1.382   1_556  A
C11          H14   1.083   1_556  S
C12        C1770   1.491       .  S
N15          C19   1.371   1_545  A
N15          C16   1.372       .  A
N15        C1754   1.459   1_545  S
C16          C17   1.381       .  A
C16        C1722   1.491       .  S
C17          C18   1.361   1_545  A
C17          H20   1.083       .  S
C18          C19   1.380       .  A
C18          H21   1.082       .  S
C19        C1738   1.487       .  S
N22          C26   1.370   1_565  A
N22          C23   1.367       .  A
N22        C1757   1.458       .  S
C23          C24   1.381       .  A
C23        C1706   1.481       .  S
C24          C25   1.363   1_565  A
C24          H27   1.083       .  S
C25          C26   1.380       .  A
C25          H28   1.082       .  S
C26        C1690   1.487       .  S
O29         Ni37   1.895       .  S
O29          C39   1.278       .  A
O30         Ni37   1.902       .  S
O30          C40   1.277       .  A
O31         Ni37   1.917       .  S
O31          C41   1.281       .  A
O32         Ni37   1.911       .  S
O32          C42   1.280       .  A
O33         Ni38   1.915       .  S
O33          C42   1.280       .  A
O34         Ni38   1.930       .  S
O34          C41   1.283       .  A
O35         Ni38   1.936       .  S
O35          C40   1.285       .  A
O36         Ni38   1.921       .  S
O36          C39   1.282       .  A
Ni37        Ni38   2.383       .  S
C39        C1661   1.480       .  S
C40        C1626   1.502       .  S
C41        C1642   1.491       .  S
C42        C1674   1.469       .  S
O43         Ni51   1.914       .  S
O43          C53   1.281       .  A
O44         Ni51   1.930       .  S
O44          C54   1.284       .  A
O45         Ni51   1.937       .  S
O45          C55   1.284       .  A
O46         Ni51   1.924       .  S
O46          C56   1.284       .  A
O47         Ni52   1.896       .  S
O47          C56   1.276       .  A
O48         Ni52   1.908       .  S
O48          C55   1.281       .  A
O49         Ni52   1.923       .  S
O49          C54   1.282       .  A
O50         Ni52   1.915       .  S
O50          C53   1.280       .  A
Ni51        Ni52   2.383       .  S
C53        C1677   1.478       .  S
C54        C1773   1.505       .  S
C55        C1594   1.492       .  S
C56        C1610   1.487       .  S
O57         Ni65   1.910       .  S
O57          C67   1.279       .  A
O58         Ni65   1.922       .  S
O58          C68   1.282       .  A
O59         Ni65   1.923       .  S
O59          C69   1.281       .  A
O60         Ni65   1.910       .  S
O60          C70   1.282       .  A
O61         Ni66   1.913       .  S
O61          C70   1.279       .  A
O62         Ni66   1.922       .  S
O62          C69   1.282       .  A
O63         Ni66   1.921       .  S
O63          C68   1.283       .  A
O64         Ni66   1.910       .  S
O64          C67   1.281       .  A
Ni65        Ni66   2.384       .  S
C67        C1581   1.489       .  S
C68        C1805   1.493       .  S
C69        C1725   1.481       .  S
C70        C1613   1.482       .  S
O71         Ni79   1.903       .  S
O71          C81   1.278       .  A
O72         Ni79   1.923       .  S
O72          C82   1.282       .  A
O73         Ni79   1.924       .  S
O73          C83   1.284       .  A
O74         Ni79   1.912       .  S
O74          C84   1.282       .  A
O75         Ni80   1.909       .  S
O75          C84   1.278       .  A
O76         Ni80   1.924       .  S
O76          C83   1.282       .  A
O77         Ni80   1.934       .  S
O77          C82   1.283       .  A
O78         Ni80   1.915       .  S
O78          C81   1.281       .  A
Ni79        Ni80   2.386       .  S
C81        C1658   1.472       .  S
C82        C1693   1.488       .  S
C83        C1562   1.496       .  S
C84        C1578   1.488       .  S
N85          C89   1.367       .  A
N85          C86   1.370       .  A
N85        C1546   1.456       .  S
C86          C87   1.381       .  A
C86        C1530   1.490       .  S
C87          C88   1.365       .  A
C87          H90   1.083       .  S
C88          C89   1.381       .  A
C88          H91   1.082       .  S
C89        C1645   1.487       .  S
N92          C96   1.374       .  A
N92          C93   1.370       .  A
N92        C1549   1.458       .  S
C93          C94   1.378       .  A
C93        C1565   1.489       .  S
C94          C95   1.363       .  A
C94          H97   1.083       .  S
C95          C96   1.383       .  A
C95          H98   1.082       .  S
C96        C1514   1.498       .  S
O99        Ni107   1.901       .  S
O99         C109   1.277       .  A
O100       Ni107   1.911       .  S
O100        C110   1.280       .  A
O101       Ni107   1.914       .  S
O101        C111   1.281       .  A
O102       Ni107   1.899       .  S
O102        C112   1.280       .  A
O103       Ni108   1.924       .  S
O103        C112   1.282       .  A
O104       Ni108   1.938       .  S
O104        C111   1.285       .  A
O105       Ni108   1.938       .  S
O105        C110   1.285       .  A
O106       Ni108   1.914       .  S
O106        C109   1.282       .  A
Ni107      Ni108   2.383       .  S
C109       C1482   1.478       .  S
C110       C1741   1.494       .  S
C111       C1466   1.504       .  S
C112       C1498   1.486       .  S
O113       Ni121   1.912       .  S
O113        C123   1.280       .  A
O114       Ni121   1.927       .  S
O114        C124   1.284       .  A
O115       Ni121   1.924       .  S
O115        C125   1.282       .  A
O116       Ni121   1.909       .  S
O116        C126   1.280       .  A
O117       Ni122   1.910       .  S
O117        C126   1.279       .  A
O118       Ni122   1.920       .  S
O118        C125   1.282       .  A
O119       Ni122   1.922       .  S
O119        C124   1.282       .  A
O120       Ni122   1.914       .  S
O120        C123   1.281       .  A
Ni121      Ni122   2.384       .  S
C123       C1501   1.484       .  S
C124       C1434   1.504       .  S
C125       C1709   1.490       .  S
C126       C1450   1.470       .  S
O127       Ni135   1.887       .  S
O127        C137   1.274       .  A
O128       Ni135   1.903       .  S
O128        C138   1.278       .  A
O129       Ni135   1.917       .  S
O129        C139   1.281       .  A
O130       Ni135   1.915       .  S
O130        C140   1.282       .  A
O131       Ni136   1.910       .  S
O131        C140   1.279       .  A
O132       Ni136   1.928       .  S
O132        C139   1.284       .  A
O133       Ni136   1.941       .  S
O133        C138   1.286       .  A
O134       Ni136   1.928       .  S
O134        C137   1.283       .  A
Ni135      Ni136   2.385       .  S
C137       C1485   1.466       .  S
C138       C1402   1.493       .  S
C139       C1386   1.503       .  S
C140       C1418   1.476       .  S
O141       Ni149   1.914       .  S
O141        C151   1.280       .  A
O142       Ni149   1.933       .  S
O142        C152   1.285       .  A
O143       Ni149   1.936       .  S
O143        C153   1.284       .  A
O144       Ni149   1.912       .  S
O144        C154   1.282       .  A
O145       Ni150   1.901       .  S
O145        C154   1.277       .  A
O146       Ni150   1.912       .  S
O146        C153   1.283       .  A
O147       Ni150   1.920       .  S
O147        C152   1.282       .  A
O148       Ni150   1.911       .  S
O148        C151   1.279       .  A
Ni149      Ni150   2.384       .  S
C151       C1421   1.466       .  S
C152       C1357   1.500       .  S
C153       C1373   1.507       .  S
C154       C1453   1.473       .  S
N155        C159   1.373       .  A
N155        C156   1.378       .  A
N155       C1338   1.468       .  S
C156        C157   1.381       .  A
C156       C1629   1.483       .  S
C157        C158   1.355       .  A
C157        H160   1.083       .  S
C158        C159   1.379       .  A
C158        H161   1.083       .  S
C159       C1405   1.483       .  S
N162        C166   1.376       .  A
N162        C163   1.380       .  A
N162       C1341   1.469       .  S
C163        C164   1.380       .  A
C163       C1370   1.490       .  S
C164        C165   1.357       .  A
C164        H167   1.083       .  S
C165        C166   1.378       .  A
C165        H168   1.083       .  S
C166       C1597   1.487       .  S
N169        C173   1.380       .  A
N169        C170   1.375   1_455  A
N169       C1322   1.465       .  S
C170        C171   1.379       .  A
C170       C1469   1.489       .  S
C171        C172   1.357   1_655  A
C171        H174   1.083       .  S
C172        C173   1.380       .  A
C172        H175   1.083       .  S
C173       C1306   1.493       .  S
N176        C180   1.371       .  A
N176        C177   1.373       .  A
N176       C1325   1.465       .  S
C177        C178   1.383       .  A
C177       C1293   1.509       .  S
C178        C179   1.362       .  A
C178        H181   1.082       .  S
C179        C180   1.379       .  A
C179        H182   1.083       .  S
C180       C1389   1.488   1_455  S
N183        C187   1.368   1_554  A
N183        C184   1.366       .  A
N183       C1274   1.457       .  S
C184        C185   1.379       .  A
C184       C1242   1.479       .  S
C185        C186   1.364   1_554  A
C185        H188   1.083       .  S
C186        C187   1.382       .  A
C186        H189   1.083       .  S
C187       C1258   1.483       .  S
N190        C194   1.367       .  A
N190        C191   1.372   1_554  A
N190       C1277   1.458       .  S
C191        C192   1.380       .  A
C191       C1226   1.485       .  S
C192        C193   1.362   1_556  A
C192        H195   1.083       .  S
C193        C194   1.378       .  A
C193        H196   1.083       .  S
C194       C1213   1.480       .  S
O197       Ni205   1.924       .  S
O197        C207   1.282       .  A
O198       Ni205   1.937       .  S
O198        C208   1.284       .  A
O199       Ni205   1.930       .  S
O199        C209   1.282       .  A
O200       Ni205   1.911       .  S
O200        C210   1.281       .  A
O201       Ni206   1.897       .  S
O201        C210   1.277       .  A
O202       Ni206   1.910       .  S
O202        C209   1.280       .  A
O203       Ni206   1.914       .  S
O203        C208   1.280       .  A
O204       Ni206   1.904       .  S
O204        C207   1.280       .  A
Ni205      Ni206   2.388       .  S
C207       C1197   1.481       .  S
C208       C1162   1.487       .  S
C209       C1146   1.480       .  S
C210       C1178   1.475       .  S
O211       Ni219   1.907       .  S
O211        C221   1.278       .  A
O212       Ni219   1.909       .  S
O212        C222   1.279       .  A
O213       Ni219   1.921       .  S
O213        C223   1.284       .  A
O214       Ni219   1.918       .  S
O214        C224   1.282       .  A
O215       Ni220   1.909       .  S
O215        C224   1.279       .  A
O216       Ni220   1.924       .  S
O216        C223   1.282       .  A
O217       Ni220   1.927       .  S
O217        C222   1.282       .  A
O218       Ni220   1.916       .  S
O218        C221   1.282       .  A
Ni219      Ni220   2.386       .  S
C221       C1130   1.477       .  S
C222       C1114   1.475       .  S
C223       C1290   1.495       .  S
C224       C1194   1.485       .  S
O225       Ni233   1.899       .  S
O225        C235   1.277       .  A
O226       Ni233   1.909       .  S
O226        C236   1.279       .  A
O227       Ni233   1.907       .  S
O227        C237   1.279       .  A
O228       Ni233   1.900       .  S
O228        C238   1.279       .  A
O229       Ni234   1.924       .  S
O229        C238   1.282       .  A
O230       Ni234   1.940       .  S
O230        C237   1.286       .  A
O231       Ni234   1.937       .  S
O231        C236   1.285       .  A
O232       Ni234   1.921       .  S
O232        C235   1.282       .  A
Ni233      Ni234   2.384       .  S
C235       C1133   1.466       .  S
C236       C1245   1.490       .  S
C237       C1309   1.508       .  S
C238       C1098   1.476       .  S
O239       Ni247   1.916       .  S
O239        C249   1.282       .  A
O240       Ni247   1.927       .  S
O240        C250   1.282       .  A
O241       Ni247   1.919       .  S
O241        C251   1.280       .  A
O242       Ni247   1.897       .  S
O242        C252   1.279       .  A
O243       Ni248   1.913       .  S
O243        C252   1.280       .  A
O244       Ni248   1.918       .  S
O244        C251   1.283       .  A
O245       Ni248   1.921       .  S
O245        C250   1.282       .  A
O246       Ni248   1.912       .  S
O246        C249   1.278       .  A
Ni247      Ni248   2.390       .  S
C249       C1101   1.469       .  S
C250       C1085   1.483       .  S
C251       C1210   1.483       .  S
C252       C1181   1.471       .  S
N253        C257   1.368       .  A
N253        C254   1.371       .  A
N253       C1066   1.457       .  S
C254        C255   1.380       .  A
C254       C1165   1.489       .  S
C255        C256   1.366       .  A
C255        H258   1.082       .  S
C256        C257   1.380       .  A
C256        H259   1.083       .  S
C257       C1437   1.484       .  S
N260        C264   1.368       .  A
N260        C261   1.370       .  A
N260       C1069   1.455       .  S
C261        C262   1.380       .  A
C261       C1082   1.491       .  S
C262        C263   1.366       .  A
C262        H265   1.082       .  S
C263        C264   1.381       .  A
C263        H266   1.083       .  S
C264       C1354   1.487       .  S
O267       Ni275   1.904       .  S
O267        C277   1.280       .  A
O268       Ni275   1.921       .  S
O268        C278   1.282       .  A
O269       Ni275   1.921       .  S
O269        C279   1.282       .  A
O270       Ni275   1.910       .  S
O270        C280   1.280       .  A
O271       Ni276   1.918       .  S
O271        C280   1.282       .  A
O272       Ni276   1.933       .  S
O272        C279   1.284       .  A
O273       Ni276   1.925       .  S
O273        C278   1.281       .  A
O274       Ni276   1.905       .  S
O274        C277   1.278       .  A
Ni275      Ni276   2.384       .  S
C277       C1034   1.473       .  S
C278       C1261   1.481       .  S
C279       C1018   1.498       .  S
C280       C1050   1.494       .  S
O281       Ni289   1.918       .  S
O281        C291   1.284       .  A
O282       Ni289   1.929       .  S
O282        C292   1.285       .  A
O283       Ni289   1.925       .  S
O283        C293   1.281       .  A
O284       Ni289   1.904       .  S
O284        C294   1.278       .  A
O285       Ni290   1.906       .  S
O285        C294   1.280       .  A
O286       Ni290   1.920       .  S
O286        C293   1.282       .  A
O287       Ni290   1.916       .  S
O287        C292   1.281       .  A
O288       Ni290   1.903       .  S
O288        C291   1.277       .  A
Ni289      Ni290   2.384       .  S
C291       C1002   1.489       .  S
C292        C970   1.500       .  S
C293        C989   1.484       .  S
C294       C1037   1.468       .  S
O295       Ni303   1.910       .  S
O295        C305   1.280       .  A
O296       Ni303   1.921       .  S
O296        C306   1.283       .  A
O297       Ni303   1.912       .  S
O297        C307   1.281       .  A
O298       Ni303   1.895       .  S
O298        C308   1.278       .  A
O299       Ni304   1.932       .  S
O299        C308   1.284       .  A
O300       Ni304   1.946       .  S
O300        C307   1.287       .  A
O301       Ni304   1.924       .  S
O301        C306   1.282       .  A
O302       Ni304   1.903       .  S
O302        C305   1.278       .  A
Ni303      Ni304   2.385       .  S
C305        C954   1.467       .  S
C306       C1229   1.490       .  S
C307        C941   1.498       .  S
C308       C1053   1.492       .  S
O309       Ni317   1.916       .  S
O309        C319   1.283       .  A
O310       Ni317   1.926       .  S
O310        C320   1.282       .  A
O311       Ni317   1.920       .  S
O311        C321   1.281       .  A
O312       Ni317   1.906       .  S
O312        C322   1.278       .  A
O313       Ni318   1.907       .  S
O313        C322   1.280       .  A
O314       Ni318   1.923       .  S
O314        C321   1.283       .  A
O315       Ni318   1.916       .  S
O315        C320   1.282       .  A
O316       Ni318   1.905       .  S
O316        C319   1.277       .  A
Ni317      Ni318   2.386       .  S
C319       C1005   1.489       .  S
C320        C906   1.483       .  S
C321        C922   1.486       .  S
C322        C957   1.472       .  S
N323        C327   1.367       .  A
N323        C324   1.368       .  A
N323        C890   1.458       .  S
C324        C325   1.382       .  A
C324        C986   1.482       .  S
C325        C326   1.364       .  A
C325        H328   1.083       .  S
C326        C327   1.378       .  A
C326        H329   1.082       .  S
C327       C1149   1.483       .  S
N330        C334   1.367       .  A
N330        C331   1.372       .  A
N330        C893   1.460       .  S
C331        C332   1.382       .  A
C331        C925   1.485       .  S
C332        C333   1.362       .  A
C332        H335   1.082       .  S
C333        C334   1.378       .  A
C333        H336   1.083       .  S
C334       C1117   1.485       .  S
O337       Ni345   1.911       .  S
O337        C347   1.280       .  A
O338       Ni345   1.932       .  S
O338        C348   1.283       .  A
O339       Ni345   1.929       .  S
O339        C349   1.283       .  A
O340       Ni345   1.909       .  S
O340        C350   1.280       .  A
O341       Ni346   1.908       .  S
O341        C350   1.280       .  A
O342       Ni346   1.912       .  S
O342        C349   1.282       .  A
O343       Ni346   1.923       .  S
O343        C348   1.282       .  A
O344       Ni346   1.910       .  S
O344        C347   1.279       .  A
Ni345      Ni346   2.388       .  S
C347        C874   1.465       .  S
C348       C1821   1.489       .  S
C349        C842   1.487       .  S
C350        C858   1.485       .  S
O351       Ni359   1.917       .  S
O351        C361   1.283       .  A
O352       Ni359   1.936       .  S
O352        C362   1.284       .  A
O353       Ni359   1.936       .  S
O353        C363   1.284       .  A
O354       Ni359   1.916       .  S
O354        C364   1.280       .  A
O355       Ni360   1.905       .  S
O355        C364   1.280       .  A
O356       Ni360   1.915       .  S
O356        C363   1.281       .  A
O357       Ni360   1.918       .  S
O357        C362   1.281       .  A
O358       Ni360   1.904       .  S
O358        C361   1.278       .  A
Ni359      Ni360   2.384       .  S
C361        C826   1.485       .  S
C362       C1786   1.488       .  S
C363        C810   1.490       .  S
C364        C861   1.488       .  S
O365       Ni373   1.907       .  S
O365        C375   1.280       .  A
O366       Ni373   1.918       .  S
O366        C376   1.281       .  A
O367       Ni373   1.916       .  S
O367        C377   1.281       .  A
O368       Ni373   1.904       .  S
O368        C378   1.279       .  A
O369       Ni374   1.912       .  S
O369        C378   1.279       .  A
O370       Ni374   1.928       .  S
O370        C377   1.282       .  A
O371       Ni374   1.938       .  S
O371        C376   1.286       .  A
O372       Ni374   1.923       .  S
O372        C375   1.282       .  A
Ni373      Ni374   2.386       .  S
C375        C794   1.489       .  S
C376        C778   1.497       .  S
C377       C1533   1.481       .  S
C378        C877   1.470       .  S
O379       Ni387   1.912       .  S
O379        C389   1.280       .  A
O380       Ni387   1.920       .  S
O380        C390   1.281       .  A
O381       Ni387   1.924       .  S
O381        C391   1.283       .  A
O382       Ni387   1.916       .  S
O382        C392   1.280       .  A
O383       Ni388   1.906       .  S
O383        C392   1.280       .  A
O384       Ni388   1.932       .  S
O384        C391   1.283       .  A
O385       Ni388   1.933       .  S
O385        C390   1.283       .  A
O386       Ni388   1.915       .  S
O386        C389   1.281       .  A
Ni387      Ni388   2.387       .  S
C389        C797   1.483       .  S
C390        C762   1.487       .  S
C391       C1517   1.490       .  S
C392        C829   1.479       .  S
N393        C397   1.370       .  A
N393        C394   1.371       .  A
N393        C746   1.455       .  S
C394        C395   1.380       .  A
C394        C730   1.489       .  S
C395        C396   1.367       .  A
C395        H398   1.082       .  S
C396        C397   1.379       .  A
C396        H399   1.082       .  S
C397        C813   1.491       .  S
N400        C404   1.371       .  A
N400        C401   1.370       .  A
N400        C749   1.458       .  S
C401        C402   1.381       .  A
C401        C765   1.495       .  S
C402        C403   1.366       .  A
C402        H405   1.083       .  S
C403        C404   1.381       .  A
C403        H406   1.083       .  S
C404        C717   1.490       .  S
N407        C411   1.366       .  A
N407        C408   1.370   1_565  A
N407        C698   1.453       .  S
C408        C409   1.383       .  A
C408        C682   1.498       .  S
C409        C410   1.369   1_545  A
C409        H412   1.082       .  S
C410        C411   1.381       .  A
C410        H413   1.082       .  S
C411       C1021   1.489       .  S
N414        C418   1.369       .  A
N414        C415   1.368   1_545  A
N414        C701   1.455   1_545  S
C415        C416   1.379   1_565  A
C415        C973   1.487       .  S
C416        C417   1.366       .  A
C416        H419   1.082       .  S
C417        C418   1.382       .  A
C417        H420   1.082       .  S
C418        C666   1.495       .  S
N421        C425   1.367   1_455  A
N421        C422   1.370       .  A
N421        C650   1.457       .  S
C422        C423   1.380       .  A
C422        C637   1.483       .  S
C423        C424   1.364       .  A
C423        H426   1.083       .  S
C424        C425   1.379   1_455  A
C424        H427   1.083   1_455  S
C425        C845   1.481       .  S
N428        C432   1.370       .  A
N428        C429   1.370   1_455  A
N428        C653   1.456       .  S
C429        C430   1.381   1_655  A
C429        C781   1.488       .  S
C430        C431   1.365       .  A
C430        H433   1.082       .  S
C431        C432   1.380       .  A
C431        H434   1.083       .  S
C432        C618   1.490       .  S
O435       Ni443   1.899       .  S
O435        C445   1.279       .  A
O436       Ni443   1.917       .  S
O436        C446   1.282       .  A
O437       Ni443   1.927       .  S
O437        C447   1.283       .  A
O438       Ni443   1.909       .  S
O438        C448   1.279       .  A
O439       Ni444   1.919       .  S
O439        C448   1.282       .  A
O440       Ni444   1.940       .  S
O440        C447   1.285       .  A
O441       Ni444   1.936       .  S
O441        C446   1.285       .  A
O442       Ni444   1.920       .  S
O442        C445   1.281       .  A
Ni443      Ni444   2.382       .  S
C445        C586   1.486       .  S
C446        C733   1.501       .  S
C447        C570   1.496       .  S
C448        C602   1.487       .  S
O449       Ni457   1.928       .  S
O449        C459   1.284       .  A
O450       Ni457   1.946       .  S
O450        C460   1.287       .  A
O451       Ni457   1.927       .  S
O451        C461   1.282       .  A
O452       Ni457   1.905       .  S
O452        C462   1.278       .  A
O453       Ni458   1.903       .  S
O453        C462   1.279       .  A
O454       Ni458   1.913       .  S
O454        C461   1.282       .  A
O455       Ni458   1.916       .  S
O455        C460   1.279       .  A
O456       Ni458   1.897       .  S
O456        C459   1.277       .  A
Ni457      Ni458   2.389       .  S
C459        C554   1.473       .  S
C460        C685   1.491       .  S
C461        C634   1.485       .  S
C462        C538   1.468       .  S
O463       Ni471   1.913       .  S
O463        C473   1.280       .  A
O464       Ni471   1.928       .  S
O464        C474   1.282       .  A
O465       Ni471   1.927       .  S
O465        C475   1.282       .  A
O466       Ni471   1.914       .  S
O466        C476   1.281       .  A
O467       Ni472   1.905       .  S
O467        C476   1.279       .  A
O468       Ni472   1.918       .  S
O468        C475   1.282       .  A
O469       Ni472   1.920       .  S
O469        C474   1.283       .  A
O470       Ni472   1.911       .  S
O470        C473   1.280       .  A
Ni471      Ni472   2.387       .  S
C473        C557   1.481       .  S
C474        C522   1.488       .  S
C475        C621   1.482       .  S
C476        C589   1.480       .  S
O477       Ni485   1.904       .  S
O477        C487   1.276       .  A
O478       Ni485   1.917       .  S
O478        C488   1.281       .  A
O479       Ni485   1.931       .  S
O479        C489   1.286       .  A
O480       Ni485   1.920       .  S
O480        C490   1.282       .  A
O481       Ni486   1.903       .  S
O481        C490   1.280       .  A
O482       Ni486   1.927       .  S
O482        C489   1.282       .  A
O483       Ni486   1.932       .  S
O483        C488   1.284       .  A
O484       Ni486   1.906       .  S
O484        C487   1.281       .  A
Ni485      Ni486   2.386       .  S
C487        C541   1.463       .  S
C488        C714   1.493       .  S
C489        C669   1.494       .  S
C490        C605   1.488       .  S
N491        C495   1.371       .  A
N491        C492   1.375       .  A
N491        C506   1.458       .  S
C492        C493   1.382       .  A
C492        C573   1.496       .  S
C493        C494   1.365       .  A
C493        H496   1.082       .  S
C494        C495   1.378       .  A
C494        H497   1.082       .  S
C495        C938   1.491       .  S
N498        C502   1.372       .  A
N498        C499   1.370       .  A
N498        C509   1.458       .  S
C499        C500   1.379       .  A
C499        C909   1.485       .  S
C500        C501   1.363       .  A
C500        H503   1.083       .  S
C501        C502   1.380       .  A
C501        H504   1.083       .  S
C502        C525   1.487       .  S
C505        C506   1.405       .  A
C505        C510   1.411       .  A
C505        H512   1.084       .  S
C506        C507   1.420       .  A
C507        C508   1.414       .  A
C507        C514   1.504       .  S
C508        C509   1.407       .  A
C508        H513   1.084       .  S
C509        C510   1.419       .  A
C510        C511   1.505       .  S
C511        H515   1.111       .  S
C511        H516   1.110       .  S
C511        H517   1.105       .  S
C514        H518   1.110       .  S
C514        H519   1.105       .  S
C514        H520   1.111       .  S
C521        C522   1.408       .  A
C521        C526   1.407       .  A
C521        H528   1.085       .  S
C522        C523   1.410       .  A
C523        C524   1.411       .  A
C523        C530   1.505       .  S
C524        C525   1.411       .  A
C524        H529   1.084       .  S
C525        C526   1.410       .  A
C526        C527   1.506       .  S
C527        H531   1.111       .  S
C527        H532   1.109       .  S
C527        H533   1.110       .  S
C530        H534   1.110       .  S
C530        H535   1.111       .  S
C530        H536   1.111       .  S
C537        C538   1.404       .  A
C537        C542   1.400       .  A
C537        H544   1.084       .  S
C538        C539   1.414       .  A
C539        C540   1.395       .  A
C539        C546   1.509       .  S
C540        C541   1.399       .  A
C540        H545   1.085       .  S
C541        C542   1.412       .  A
C542        C543   1.508       .  S
C543        H547   1.111       .  S
C543        H548   1.109       .  S
C543        H549   1.110       .  S
C546        H550   1.108       .  S
C546        H551   1.111       .  S
C546        H552   1.111       .  S
C553        C554   1.401       .  A
C553        C558   1.399       .  A
C553        H560   1.082       .  S
C554        C555   1.411       .  A
C555        C556   1.404       .  A
C555        C562   1.507       .  S
C556        C557   1.407       .  A
C556        H561   1.084       .  S
C557        C558   1.417       .  A
C558        C559   1.510       .  S
C559        H563   1.111       .  S
C559        H564   1.109       .  S
C559        H565   1.109       .  S
C562        H566   1.110       .  S
C562        H567   1.111       .  S
C562        H568   1.111       .  S
C569        C570   1.400       .  A
C569        C574   1.411       .  A
C569        H576   1.084       .  S
C570        C571   1.422       .  A
C571        C572   1.410       .  A
C571        C578   1.503       .  S
C572        C573   1.399       .  A
C572        H577   1.084       .  S
C573        C574   1.425       .  A
C574        C575   1.507       .  S
C575        H579   1.110       .  S
C575        H580   1.111       .  S
C575        H581   1.108       .  S
C578        H582   1.109       .  S
C578        H583   1.107       .  S
C578        H584   1.111       .  S
C585        C586   1.407       .  A
C585        C590   1.399       .  A
C585        H592   1.084       .  S
C586        C587   1.417       .  A
C587        C588   1.402       .  A
C587        C594   1.508       .  S
C588        C589   1.405       .  A
C588        H593   1.084       .  S
C589        C590   1.414       .  A
C590        C591   1.509       .  S
C591        H595   1.111       .  S
C591        H596   1.110       .  S
C591        H597   1.110       .  S
C594        H598   1.110       .  S
C594        H599   1.110       .  S
C594        H600   1.111       .  S
C601        C602   1.407       .  A
C601        C606   1.406       .  A
C601        H608   1.084       .  S
C602        C603   1.418       .  A
C603        C604   1.398       .  A
C603        C610   1.509       .  S
C604        C605   1.405       .  A
C604        H609   1.083       .  S
C605        C606   1.418       .  A
C606        C607   1.508       .  S
C607        H611   1.111       .  S
C607        H612   1.110       .  S
C607        H613   1.110       .  S
C610        H614   1.109       .  S
C610        H615   1.108       .  S
C610        H616   1.111       .  S
C617        C618   1.413       .  A
C617        C622   1.410       .  A
C617        H624   1.084       .  S
C618        C619   1.410       .  A
C619        C620   1.407       .  A
C619        C626   1.506       .  S
C620        C621   1.407       .  A
C620        H625   1.083       .  S
C621        C622   1.405       .  A
C622        C623   1.504       .  S
C623        H627   1.111       .  S
C623        H628   1.110       .  S
C623        H629   1.110       .  S
C626        H630   1.110       .  S
C626        H631   1.109       .  S
C626        H632   1.111       .  S
C633        C634   1.406       .  A
C633        C638   1.403       .  A
C633        H640   1.081       .  S
C634        C635   1.410       .  A
C635        C636   1.412       .  A
C635        C642   1.504       .  S
C636        C637   1.411       .  A
C636        H641   1.083       .  S
C637        C638   1.409       .  A
C638        C639   1.507       .  S
C639        H643   1.110       .  S
C639        H644   1.110       .  S
C639        H645   1.110       .  S
C642        H646   1.110       .  S
C642        H647   1.110       .  S
C642        H648   1.111       .  S
C649        C650   1.408       .  A
C649        C654   1.413       .  A
C649        H656   1.083       .  S
C650        C651   1.418       .  A
C651        C652   1.410       .  A
C651        C658   1.504       .  S
C652        C653   1.407       .  A
C652        H657   1.083       .  S
C653        C654   1.417       .  A
C654        C655   1.503       .  S
C655        H659   1.110       .  S
C655        H660   1.110   1_455  S
C655        H661   1.108       .  S
C658        H662   1.106       .  S
C658        H663   1.110       .  S
C658        H664   1.111   1_455  S
C665        C666   1.400       .  A
C665        C670   1.414       .  A
C665        H672   1.084       .  S
C666        C667   1.421       .  A
C667        C668   1.405       .  A
C667        C674   1.508       .  S
C668        C669   1.399       .  A
C668        H673   1.084       .  S
C669        C670   1.425       .  A
C670        C671   1.505       .  S
C671        H675   1.111       .  S
C671        H676   1.104       .  S
C671        H677   1.110       .  S
C674        H678   1.110       .  S
C674        H679   1.109       .  S
C674        H680   1.111       .  S
C681        C682   1.400       .  A
C681        C686   1.411       .  A
C681        H688   1.084       .  S
C682        C683   1.424       .  A
C683        C684   1.408       .  A
C683        C690   1.508       .  S
C684        C685   1.399       .  A
C684        H689   1.084       .  S
C685        C686   1.420       .  A
C686        C687   1.501       .  S
C687        H691   1.111       .  S
C687        H692   1.107       .  S
C687        H693   1.110       .  S
C690        H694   1.110       .  S
C690        H695   1.108   1_545  S
C690        H696   1.111       .  S
C697        C698   1.410       .  A
C697        C702   1.412       .  A
C697        H704   1.084       .  S
C698        C699   1.412       .  A
C699        C700   1.406       .  A
C699        C706   1.505       .  S
C700        C701   1.409       .  A
C700        H705   1.081       .  S
C701        C702   1.415       .  A
C702        C703   1.504       .  S
C703        H707   1.110       .  S
C703        H708   1.110   1_565  S
C703        H709   1.108       .  S
C706        H710   1.110   1_565  S
C706        H711   1.108       .  S
C706        H712   1.110       .  S
C713        C714   1.402       .  A
C713        C718   1.410       .  A
C713        H720   1.084       .  S
C714        C715   1.424       .  A
C715        C716   1.405       .  A
C715        C722   1.507       .  S
C716        C717   1.397       .  A
C716        H721   1.084       .  S
C717        C718   1.422       .  A
C718        C719   1.507       .  S
C719        H723   1.110       .  S
C719        H724   1.110       .  S
C719        H725   1.108       .  S
C722        H726   1.104       .  S
C722        H727   1.109       .  S
C722        H728   1.111       .  S
C729        C730   1.410       .  A
C729        C734   1.415       .  A
C729        H736   1.084       .  S
C730        C731   1.412       .  A
C731        C732   1.405       .  A
C731        C738   1.508       .  S
C732        C733   1.409       .  A
C732        H737   1.083       .  S
C733        C734   1.416       .  A
C734        C735   1.505       .  S
C735        H739   1.111       .  S
C735        H740   1.110       .  S
C735        H741   1.110       .  S
C738        H742   1.110       .  S
C738        H743   1.107       .  S
C738        H744   1.111       .  S
C745        C746   1.401       .  A
C745        C750   1.410       .  A
C745        H752   1.083       .  S
C746        C747   1.421       .  A
C747        C748   1.414       .  A
C747        C754   1.504       .  S
C748        C749   1.406       .  A
C748        H753   1.083       .  S
C749        C750   1.422       .  A
C750        C751   1.504       .  S
C751        H755   1.111       .  S
C751        H756   1.110       .  S
C751        H757   1.106       .  S
C754        H758   1.105       .  S
C754        H759   1.110       .  S
C754        H760   1.111       .  S
C761        C762   1.408       .  A
C761        C766   1.411       .  A
C761        H768   1.084       .  S
C762        C763   1.406       .  A
C763        C764   1.410       .  A
C763        C770   1.504       .  S
C764        C765   1.413       .  A
C764        H769   1.084       .  S
C765        C766   1.413       .  A
C766        C767   1.507       .  S
C767        H771   1.110       .  S
C767        H772   1.110       .  S
C767        H773   1.106       .  S
C770        H774   1.110       .  S
C770        H775   1.110       .  S
C770        H776   1.111       .  S
C777        C778   1.404       .  A
C777        C782   1.413       .  A
C777        H784   1.084       .  S
C778        C779   1.425       .  A
C779        C780   1.407       .  A
C779        C786   1.508       .  S
C780        C781   1.398       .  A
C780        H785   1.085       .  S
C781        C782   1.418       .  A
C782        C783   1.507       .  S
C783        H787   1.111       .  S
C783        H788   1.110       .  S
C783        H789   1.109       .  S
C786        H790   1.106       .  S
C786        H791   1.109       .  S
C786        H792   1.111       .  S
C793        C794   1.407       .  A
C793        C798   1.401       .  A
C793        H800   1.084       .  S
C794        C795   1.418       .  A
C795        C796   1.405       .  A
C795        C802   1.508       .  S
C796        C797   1.405       .  A
C796        H801   1.084       .  S
C797        C798   1.414       .  A
C798        C799   1.509       .  S
C799        H803   1.111       .  S
C799        H804   1.111       .  S
C799        H805   1.110       .  S
C802        H806   1.110       .  S
C802        H807   1.110       .  S
C802        H808   1.111       .  S
C809        C810   1.408       .  A
C809        C814   1.406       .  A
C809        H816   1.085       .  S
C810        C811   1.409       .  A
C811        C812   1.415       .  A
C811        C818   1.503       .  S
C812        C813   1.412       .  A
C812        H817   1.084       .  S
C813        C814   1.412       .  A
C814        C815   1.507       .  S
C815        H819   1.110       .  S
C815        H820   1.110       .  S
C815        H821   1.107       .  S
C818        H822   1.110       .  S
C818        H823   1.110       .  S
C818        H824   1.111       .  S
C825        C826   1.407       .  A
C825        C830   1.403       .  A
C825        H832   1.084       .  S
C826        C827   1.420       .  A
C827        C828   1.399       .  A
C827        C834   1.510       .  S
C828        C829   1.402       .  A
C828        H833   1.084       .  S
C829        C830   1.415       .  A
C830        C831   1.509       .  S
C831        H835   1.111       .  S
C831        H836   1.109       .  S
C831        H837   1.108       .  S
C834        H838   1.110       .  S
C834        H839   1.110       .  S
C834        H840   1.111       .  S
C841        C842   1.407       .  A
C841        C846   1.402       .  A
C841        H848   1.083       .  S
C842        C843   1.412       .  A
C843        C844   1.412       .  A
C843        C850   1.504       .  S
C844        C845   1.409       .  A
C844        H849   1.084       .  S
C845        C846   1.408       .  A
C846        C847   1.507       .  S
C847        H851   1.111       .  S
C847        H852   1.110       .  S
C847        H853   1.109       .  S
C850        H854   1.110       .  S
C850        H855   1.110       .  S
C850        H856   1.111       .  S
C857        C858   1.406       .  A
C857        C862   1.402       .  A
C857        H864   1.084       .  S
C858        C859   1.417       .  A
C859        C860   1.399       .  A
C859        C866   1.510       .  S
C860        C861   1.406       .  A
C860        H865   1.083       .  S
C861        C862   1.418       .  A
C862        C863   1.509       .  S
C863        H867   1.111       .  S
C863        H868   1.110       .  S
C863        H869   1.110       .  S
C866        H870   1.108       .  S
C866        H871   1.110       .  S
C866        H872   1.111       .  S
C873        C874   1.401       .  A
C873        C878   1.402       .  A
C873        H880   1.083       .  S
C874        C875   1.410       .  A
C875        C876   1.397       .  A
C875        C882   1.507       .  S
C876        C877   1.402       .  A
C876        H881   1.085       .  S
C877        C878   1.415       .  A
C878        C879   1.508       .  S
C879        H883   1.111       .  S
C879        H884   1.110       .  S
C879        H885   1.109       .  S
C882        H886   1.109       .  S
C882        H887   1.111       .  S
C882        H888   1.111       .  S
C889        C890   1.403       .  A
C889        C894   1.411       .  A
C889        H896   1.083       .  S
C890        C891   1.420       .  A
C891        C892   1.412       .  A
C891        C898   1.505       .  S
C892        C893   1.406       .  A
C892        H897   1.083       .  S
C893        C894   1.421       .  A
C894        C895   1.501       .  S
C895        H899   1.104       .  S
C895        H900   1.110       .  S
C895        H901   1.111       .  S
C898        H902   1.110       .  S
C898        H903   1.104       .  S
C898        H904   1.111       .  S
C905        C906   1.405       .  A
C905        C910   1.403       .  A
C905        H912   1.085       .  S
C906        C907   1.408       .  A
C907        C908   1.412       .  A
C907        C914   1.504       .  S
C908        C909   1.412       .  A
C908        H913   1.084       .  S
C909        C910   1.413       .  A
C910        C911   1.506       .  S
C911        H915   1.111       .  S
C911        H916   1.104       .  S
C911        H917   1.110       .  S
C914        H918   1.110       .  S
C914        H919   1.111       .  S
C914        H920   1.111       .  S
C921        C922   1.400       .  A
C921        C926   1.407       .  A
C921        H928   1.084       .  S
C922        C923   1.419       .  A
C923        C924   1.407       .  A
C923        C930   1.506       .  S
C924        C925   1.400       .  A
C924        H929   1.084       .  S
C925        C926   1.422       .  A
C926        C927   1.511       .  S
C927        H931   1.111       .  S
C927        H932   1.106       .  S
C927        H933   1.107       .  S
C930        H934   1.108       .  S
C930        H935   1.110       .  S
C930        H936   1.111       .  S
C937        C938   1.411       .  A
C937        C942   1.416       .  A
C937        H944   1.084       .  S
C938        C939   1.409       .  A
C939        C940   1.406       .  A
C939        C946   1.507       .  S
C940        C941   1.410       .  A
C940        H945   1.083       .  S
C941        C942   1.415       .  A
C942        C943   1.504       .  S
C943        H947   1.110       .  S
C943        H948   1.110       .  S
C943        H949   1.107       .  S
C946        H950   1.110       .  S
C946        H951   1.110       .  S
C946        H952   1.111       .  S
C953        C954   1.400       .  A
C953        C958   1.399       .  A
C953        H960   1.083       .  S
C954        C955   1.413       .  A
C955        C956   1.398       .  A
C955        C962   1.509       .  S
C956        C957   1.403       .  A
C956        H961   1.084       .  S
C957        C958   1.416       .  A
C958        C959   1.509       .  S
C959        H963   1.111       .  S
C959        H964   1.109       .  S
C959        H965   1.111       .  S
C962        H966   1.111       .  S
C962        H967   1.109       .  S
C962        H968   1.111       .  S
C969        C970   1.407       .  A
C969        C974   1.410       .  A
C969        H976   1.084       .  S
C970        C971   1.426       .  A
C971        C972   1.407       .  A
C971        C978   1.508       .  S
C972        C973   1.399       .  A
C972        H977   1.085       .  S
C973        C974   1.415       .  A
C974        C975   1.507       .  S
C975        H979   1.111       .  S
C975        H980   1.109       .  S
C975        H981   1.108       .  S
C978        H982   1.110       .  S
C978        H983   1.108       .  S
C978        H984   1.111       .  S
C985        C986   1.396       .  A
C985        C990   1.403       .  A
C985        H992   1.084       .  S
C986        C987   1.420       .  A
C987        C988   1.407       .  A
C987        C994   1.507       .  S
C988        C989   1.399       .  A
C988        H993   1.084       .  S
C989        C990   1.419       .  A
C990        C991   1.503       .  S
C991        H995   1.111       .  S
C991        H996   1.107       .  S
C991        H997   1.107       .  S
C994        H998   1.109       .  S
C994        H999   1.110       .  S
C994       H1000   1.110       .  S
C1001      C1002   1.405       .  A
C1001      C1006   1.402       .  A
C1001      H1008   1.083       .  S
C1002      C1003   1.421       .  A
C1003      C1004   1.400       .  A
C1003      C1010   1.510       .  S
C1004      C1005   1.404       .  A
C1004      H1009   1.083       .  S
C1005      C1006   1.421       .  A
C1006      C1007   1.510       .  S
C1007      H1011   1.111       .  S
C1007      H1012   1.110       .  S
C1007      H1013   1.109       .  S
C1010      H1014   1.110       .  S
C1010      H1015   1.107       .  S
C1010      H1016   1.111       .  S
C1017      C1018   1.405       .  A
C1017      C1022   1.411       .  A
C1017      H1024   1.084       .  S
C1018      C1019   1.424       .  A
C1019      C1020   1.408       .  A
C1019      C1026   1.508       .  S
C1020      C1021   1.399       .  A
C1020      H1025   1.085       .  S
C1021      C1022   1.417       .  A
C1022      C1023   1.506       .  S
C1023      H1027   1.111       .  S
C1023      H1028   1.110       .  S
C1023      H1029   1.109       .  S
C1026      H1030   1.109       .  S
C1026      H1031   1.109       .  S
C1026      H1032   1.111       .  S
C1033      C1034   1.403       .  A
C1033      C1038   1.398       .  A
C1033      H1040   1.084       .  S
C1034      C1035   1.416       .  A
C1035      C1036   1.398       .  A
C1035      C1042   1.509       .  S
C1036      C1037   1.401       .  A
C1036      H1041   1.083       .  S
C1037      C1038   1.414       .  A
C1038      C1039   1.509       .  S
C1039      H1043   1.111       .  S
C1039      H1044   1.111       .  S
C1039      H1045   1.109       .  S
C1042      H1046   1.110       .  S
C1042      H1047   1.111       .  S
C1042      H1048   1.111       .  S
C1049      C1050   1.411       .  A
C1049      C1054   1.406       .  A
C1049      H1056   1.083       .  S
C1050      C1051   1.417       .  A
C1051      C1052   1.399       .  A
C1051      C1058   1.510       .  S
C1052      C1053   1.408       .  A
C1052      H1057   1.083       .  S
C1053      C1054   1.416       .  A
C1054      C1055   1.508       .  S
C1055      H1059   1.111       .  S
C1055      H1060   1.110       .  S
C1055      H1061   1.110       .  S
C1058      H1062   1.110       .  S
C1058      H1063   1.110       .  S
C1058      H1064   1.111       .  S
C1065      C1066   1.409       .  A
C1065      C1070   1.410       .  A
C1065      H1072   1.080       .  S
C1066      C1067   1.415       .  A
C1067      C1068   1.414       .  A
C1067      C1074   1.503       .  S
C1068      C1069   1.410       .  A
C1068      H1073   1.084       .  S
C1069      C1070   1.413       .  A
C1070      C1071   1.504       .  S
C1071      H1075   1.111       .  S
C1071      H1076   1.110       .  S
C1071      H1077   1.108       .  S
C1074      H1078   1.110       .  S
C1074      H1079   1.107       .  S
C1074      H1080   1.110       .  S
C1081      C1082   1.412       .  A
C1081      C1086   1.410       .  A
C1081      H1088   1.084       .  S
C1082      C1083   1.411       .  A
C1083      C1084   1.408       .  A
C1083      C1090   1.506       .  S
C1084      C1085   1.407       .  A
C1084      H1089   1.083       .  S
C1085      C1086   1.406       .  A
C1086      C1087   1.504       .  S
C1087      H1091   1.111       .  S
C1087      H1092   1.110       .  S
C1087      H1093   1.110       .  S
C1090      H1094   1.105       .  S
C1090      H1095   1.110       .  S
C1090      H1096   1.111       .  S
C1097      C1098   1.403       .  A
C1097      C1102   1.397       .  A
C1097      H1104   1.084       .  S
C1098      C1099   1.416       .  A
C1099      C1100   1.406       .  A
C1099      C1106   1.507       .  S
C1100      C1101   1.402       .  A
C1100      H1105   1.084       .  S
C1101      C1102   1.410       .  A
C1102      C1103   1.508       .  S
C1103      H1107   1.111       .  S
C1103      H1108   1.109       .  S
C1103      H1109   1.110       .  S
C1106      H1110   1.110       .  S
C1106      H1111   1.110       .  S
C1106      H1112   1.111       .  S
C1113      C1114   1.406       .  A
C1113      C1118   1.404       .  A
C1113      H1120   1.083       .  S
C1114      C1115   1.405       .  A
C1115      C1116   1.408       .  A
C1115      C1122   1.504       .  S
C1116      C1117   1.411       .  A
C1116      H1121   1.084       .  S
C1117      C1118   1.410       .  A
C1118      C1119   1.507       .  S
C1119      H1123   1.111       .  S
C1119      H1124   1.110       .  S
C1119      H1125   1.106       .  S
C1122      H1126   1.110       .  S
C1122      H1127   1.110       .  S
C1122      H1128   1.111       .  S
C1129      C1130   1.403       .  A
C1129      C1134   1.398       .  A
C1129      H1136   1.083       .  S
C1130      C1131   1.419       .  A
C1131      C1132   1.403       .  A
C1131      C1138   1.508       .  S
C1132      C1133   1.399       .  A
C1132      H1137   1.084       .  S
C1133      C1134   1.412       .  A
C1134      C1135   1.509       .  S
C1135      H1139   1.111       .  S
C1135      H1140   1.110       .  S
C1135      H1141   1.109       .  S
C1138      H1142   1.110       .  S
C1138      H1143   1.111       .  S
C1138      H1144   1.111       .  S
C1145      C1146   1.406       .  A
C1145      C1150   1.403       .  A
C1145      H1152   1.083       .  S
C1146      C1147   1.407       .  A
C1147      C1148   1.411       .  A
C1147      C1154   1.504       .  S
C1148      C1149   1.411       .  A
C1148      H1153   1.084       .  S
C1149      C1150   1.409       .  A
C1150      C1151   1.507       .  S
C1151      H1155   1.111       .  S
C1151      H1156   1.110       .  S
C1151      H1157   1.107       .  S
C1154      H1158   1.110       .  S
C1154      H1159   1.110       .  S
C1154      H1160   1.111       .  S
C1161      C1162   1.408       .  A
C1161      C1166   1.408       .  A
C1161      H1168   1.084       .  S
C1162      C1163   1.407       .  A
C1163      C1164   1.412       .  A
C1163      C1170   1.504       .  S
C1164      C1165   1.412       .  A
C1164      H1169   1.084       .  S
C1165      C1166   1.410       .  A
C1166      C1167   1.506       .  S
C1167      H1171   1.111       .  S
C1167      H1172   1.107       .  S
C1167      H1173   1.110       .  S
C1170      H1174   1.110       .  S
C1170      H1175   1.111       .  S
C1170      H1176   1.111       .  S
C1177      C1178   1.406       .  A
C1177      C1182   1.401       .  A
C1177      H1184   1.084       .  S
C1178      C1179   1.416       .  A
C1179      C1180   1.393       .  A
C1179      C1186   1.511       .  S
C1180      C1181   1.402       .  A
C1180      H1185   1.084       .  S
C1181      C1182   1.413       .  A
C1182      C1183   1.508       .  S
C1183      H1187   1.111       .  S
C1183      H1188   1.108       .  S
C1183      H1189   1.109       .  S
C1186      H1190   1.109       .  S
C1186      H1191   1.111       .  S
C1186      H1192   1.111       .  S
C1193      C1194   1.407       .  A
C1193      C1198   1.405       .  A
C1193      H1200   1.084       .  S
C1194      C1195   1.419       .  A
C1195      C1196   1.399       .  A
C1195      C1202   1.510       .  S
C1196      C1197   1.403       .  A
C1196      H1201   1.084       .  S
C1197      C1198   1.414       .  A
C1198      C1199   1.507       .  S
C1199      H1203   1.111       .  S
C1199      H1204   1.110       .  S
C1199      H1205   1.111       .  S
C1202      H1206   1.110       .  S
C1202      H1207   1.109       .  S
C1202      H1208   1.111       .  S
C1209      C1210   1.406       .  A
C1209      C1214   1.403       .  A
C1209      H1216   1.084       .  S
C1210      C1211   1.412       .  A
C1211      C1212   1.410       .  A
C1211      C1218   1.505       .  S
C1212      C1213   1.407       .  A
C1212      H1217   1.084       .  S
C1213      C1214   1.410       .  A
C1214      C1215   1.507       .  S
C1215      H1219   1.111       .  S
C1215      H1220   1.110       .  S
C1215      H1221   1.109       .  S
C1218      H1222   1.110       .  S
C1218      H1223   1.110       .  S
C1218      H1224   1.111       .  S
C1225      C1226   1.411       .  A
C1225      C1230   1.411       .  A
C1225      H1232   1.084       .  S
C1226      C1227   1.409       .  A
C1227      C1228   1.408       .  A
C1227      C1234   1.506       .  S
C1228      C1229   1.409       .  A
C1228      H1233   1.084       .  S
C1229      C1230   1.410       .  A
C1230      C1231   1.505       .  S
C1231      H1235   1.111       .  S
C1231      H1236   1.110       .  S
C1231      H1237   1.110       .  S
C1234      H1238   1.110       .  S
C1234      H1239   1.110       .  S
C1234      H1240   1.111       .  S
C1241      C1242   1.397       .  A
C1241      C1246   1.405       .  A
C1241      H1248   1.085       .  S
C1242      C1243   1.417       .  A
C1243      C1244   1.408       .  A
C1243      C1250   1.506       .  S
C1244      C1245   1.403       .  A
C1244      H1249   1.084       .  S
C1245      C1246   1.424       .  A
C1246      C1247   1.508       .  S
C1247      H1251   1.111       .  S
C1247      H1252   1.107       .  S
C1247      H1253   1.109       .  S
C1250      H1254   1.110       .  S
C1250      H1255   1.110       .  S
C1250      H1256   1.110       .  S
C1257      C1258   1.396       .  A
C1257      C1262   1.403       .  A
C1257      H1264   1.084       .  S
C1258      C1259   1.422       .  A
C1259      C1260   1.406       .  A
C1259      C1266   1.507       .  S
C1260      C1261   1.398       .  A
C1260      H1265   1.084       .  S
C1261      C1262   1.418       .  A
C1262      C1263   1.502       .  S
C1263      H1267   1.111       .  S
C1263      H1268   1.109       .  S
C1263      H1269   1.108       .  S
C1266      H1270   1.109   1_556  S
C1266      H1271   1.110       .  S
C1266      H1272   1.110       .  S
C1273      C1274   1.407       .  A
C1273      C1278   1.413       .  A
C1273      H1280   1.083       .  S
C1274      C1275   1.417       .  A
C1275      C1276   1.412       .  A
C1275      C1282   1.505       .  S
C1276      C1277   1.408       .  A
C1276      H1281   1.084       .  S
C1277      C1278   1.418       .  A
C1278      C1279   1.503       .  S
C1279      H1283   1.111       .  S
C1279      H1284   1.106       .  S
C1279      H1285   1.110   1_554  S
C1282      H1286   1.111       .  S
C1282      H1287   1.106       .  S
C1282      H1288   1.110   1_554  S
C1289      C1290   1.402       .  A
C1289      C1294   1.403       .  A
C1289      H1296   1.085       .  S
C1290      C1291   1.423       .  A
C1291      C1292   1.412       .  A
C1291      C1298   1.507       .  S
C1292      C1293   1.404       .  A
C1292      H1297   1.076       .  S
C1293      C1294   1.422       .  A
C1294      C1295   1.508       .  S
C1295      H1299   1.111       .  S
C1295      H1300   1.110       .  S
C1295      H1301   1.109       .  S
C1298      H1302   1.108       .  S
C1298      H1303   1.110       .  S
C1298      H1304   1.111       .  S
C1305      C1306   1.402       .  A
C1305      C1310   1.401       .  A
C1305      H1312   1.085       .  S
C1306      C1307   1.411       .  A
C1307      C1308   1.418       .  A
C1307      C1314   1.505       .  S
C1308      C1309   1.416       .  A
C1308      H1313   1.083       .  S
C1309      C1310   1.425       .  A
C1310      C1311   1.511       .  S
C1311      H1315   1.111       .  S
C1311      H1316   1.110       .  S
C1311      H1317   1.110       .  S
C1314      H1318   1.110       .  S
C1314      H1319   1.108       .  S
C1314      H1320   1.111       .  S
C1321      C1322   1.412   1_655  A
C1321      C1326   1.414       .  A
C1321      H1328   1.080       .  S
C1322      C1323   1.416       .  A
C1323      C1324   1.406       .  A
C1323      C1330   1.502       .  S
C1324      C1325   1.412       .  A
C1324      H1329   1.082       .  S
C1325      C1326   1.418   1_455  A
C1326      C1327   1.502       .  S
C1327      H1331   1.110       .  S
C1327      H1332   1.107       .  S
C1327      H1333   1.110       .  S
C1330      H1334   1.108       .  S
C1330      H1335   1.109       .  S
C1330      H1336   1.111       .  S
C1337      C1338   1.412       .  A
C1337      C1342   1.409       .  A
C1337      H1344   1.078       .  S
C1338      C1339   1.418       .  A
C1339      C1340   1.411       .  A
C1339      C1346   1.502       .  S
C1340      C1341   1.412       .  A
C1340      H1345   1.076       .  S
C1341      C1342   1.419       .  A
C1342      C1343   1.502       .  S
C1343      H1347   1.111       .  S
C1343      H1348   1.110       .  S
C1343      H1349   1.105       .  S
C1346      H1350   1.111       .  S
C1346      H1351   1.107       .  S
C1346      H1352   1.110       .  S
C1353      C1354   1.399       .  A
C1353      C1358   1.409       .  A
C1353      H1360   1.085       .  S
C1354      C1355   1.417       .  A
C1355      C1356   1.410       .  A
C1355      C1362   1.506       .  S
C1356      C1357   1.406       .  A
C1356      H1361   1.084       .  S
C1357      C1358   1.426       .  A
C1358      C1359   1.509       .  S
C1359      H1363   1.111       .  S
C1359      H1364   1.109       .  S
C1359      H1365   1.109       .  S
C1362      H1366   1.110       .  S
C1362      H1367   1.109       .  S
C1362      H1368   1.110       .  S
C1369      C1370   1.404       .  A
C1369      C1374   1.419       .  A
C1369      H1376   1.084       .  S
C1370      C1371   1.417       .  A
C1371      C1372   1.398       .  A
C1371      C1378   1.512       .  S
C1372      C1373   1.407       .  A
C1372      H1377   1.084       .  S
C1373      C1374   1.426       .  A
C1374      C1375   1.505       .  S
C1375      H1379   1.111       .  S
C1375      H1380   1.110       .  S
C1375      H1381   1.110       .  S
C1378      H1382   1.110       .  S
C1378      H1383   1.108       .  S
C1378      H1384   1.111       .  S
C1385      C1386   1.414       .  A
C1385      C1390   1.410       .  A
C1385      H1392   1.083       .  S
C1386      C1387   1.423       .  A
C1387      C1388   1.407       .  A
C1387      C1394   1.508       .  S
C1388      C1389   1.403       .  A
C1388      H1393   1.084       .  S
C1389      C1390   1.407       .  A
C1390      C1391   1.505       .  S
C1391      H1395   1.111       .  S
C1391      H1396   1.110       .  S
C1391      H1397   1.110       .  S
C1394      H1398   1.110       .  S
C1394      H1399   1.109       .  S
C1394      H1400   1.111       .  S
C1401      C1402   1.409       .  A
C1401      C1406   1.416       .  A
C1401      H1408   1.084       .  S
C1402      C1403   1.424       .  A
C1403      C1404   1.394       .  A
C1403      C1410   1.509       .  S
C1404      C1405   1.395       .  A
C1404      H1409   1.085       .  S
C1405      C1406   1.415       .  A
C1406      C1407   1.504       .  S
C1407      H1411   1.110       .  S
C1407      H1412   1.109       .  S
C1407      H1413   1.110       .  S
C1410      H1414   1.101       .  S
C1410      H1415   1.109       .  S
C1410      H1416   1.111       .  S
C1417      C1418   1.403       .  A
C1417      C1422   1.401       .  A
C1417      H1424   1.084       .  S
C1418      C1419   1.418       .  A
C1419      C1420   1.402       .  A
C1419      C1426   1.508       .  S
C1420      C1421   1.399       .  A
C1420      H1425   1.085       .  S
C1421      C1422   1.411       .  A
C1422      C1423   1.508       .  S
C1423      H1427   1.111       .  S
C1423      H1428   1.109       .  S
C1423      H1429   1.109       .  S
C1426      H1430   1.110       .  S
C1426      H1431   1.109       .  S
C1426      H1432   1.111       .  S
C1433      C1434   1.410       .  A
C1433      C1438   1.409       .  A
C1433      H1440   1.084       .  S
C1434      C1435   1.425       .  A
C1435      C1436   1.408       .  A
C1435      C1442   1.509       .  S
C1436      C1437   1.400       .  A
C1436      H1441   1.085       .  S
C1437      C1438   1.414       .  A
C1438      C1439   1.507       .  S
C1439      H1443   1.110       .  S
C1439      H1444   1.110       .  S
C1439      H1445   1.108       .  S
C1442      H1446   1.110       .  S
C1442      H1447   1.106       .  S
C1442      H1448   1.111       .  S
C1449      C1450   1.401       .  A
C1449      C1454   1.400       .  A
C1449      H1456   1.084       .  S
C1450      C1451   1.412       .  A
C1451      C1452   1.398       .  A
C1451      C1458   1.505       .  S
C1452      C1453   1.403       .  A
C1452      H1457   1.084       .  S
C1453      C1454   1.417       .  A
C1454      C1455   1.509       .  S
C1455      H1459   1.111       .  S
C1455      H1460   1.109       .  S
C1455      H1461   1.109       .  S
C1458      H1462   1.110       .  S
C1458      H1463   1.109       .  S
C1458      H1464   1.111       .  S
C1465      C1466   1.412       .  A
C1465      C1470   1.419       .  A
C1465      H1472   1.083       .  S
C1466      C1467   1.427       .  A
C1467      C1468   1.400       .  A
C1467      C1474   1.510       .  S
C1468      C1469   1.397       .  A
C1468      H1473   1.085       .  S
C1469      C1470   1.413       .  A
C1470      C1471   1.504       .  S
C1471      H1475   1.111       .  S
C1471      H1476   1.110   1_655  S
C1471      H1477   1.110       .  S
C1474      H1478   1.109       .  S
C1474      H1479   1.104       .  S
C1474      H1480   1.111       .  S
C1481      C1482   1.403       .  A
C1481      C1486   1.397       .  A
C1481      H1488   1.084       .  S
C1482      C1483   1.420       .  A
C1483      C1484   1.403       .  A
C1483      C1490   1.508       .  S
C1484      C1485   1.399       .  A
C1484      H1489   1.084       .  S
C1485      C1486   1.413       .  A
C1486      C1487   1.511       .  S
C1487      H1491   1.111       .  S
C1487      H1492   1.110       .  S
C1487      H1493   1.108       .  S
C1490      H1494   1.110       .  S
C1490      H1495   1.110       .  S
C1490      H1496   1.111       .  S
C1497      C1498   1.406       .  A
C1497      C1502   1.398       .  A
C1497      H1504   1.084       .  S
C1498      C1499   1.417       .  A
C1499      C1500   1.406       .  A
C1499      C1506   1.508       .  S
C1500      C1501   1.407       .  A
C1500      H1505   1.083       .  S
C1501      C1502   1.415       .  A
C1502      C1503   1.510       .  S
C1503      H1507   1.111       .  S
C1503      H1508   1.109       .  S
C1503      H1509   1.110       .  S
C1506      H1510   1.110       .  S
C1506      H1511   1.110       .  S
C1506      H1512   1.111       .  S
C1513      C1514   1.399       .  A
C1513      C1518   1.410       .  A
C1513      H1520   1.083       .  S
C1514      C1515   1.424       .  A
C1515      C1516   1.406       .  A
C1515      C1522   1.508       .  S
C1516      C1517   1.398       .  A
C1516      H1521   1.084       .  S
C1517      C1518   1.424       .  A
C1518      C1519   1.503       .  S
C1519      H1523   1.110       .  S
C1519      H1524   1.109       .  S
C1519      H1525   1.102       .  S
C1522      H1526   1.110       .  S
C1522      H1527   1.109       .  S
C1522      H1528   1.110       .  S
C1529      C1530   1.413       .  A
C1529      C1534   1.409       .  A
C1529      H1536   1.084       .  S
C1530      C1531   1.413       .  A
C1531      C1532   1.407       .  A
C1531      C1538   1.505       .  S
C1532      C1533   1.407       .  A
C1532      H1537   1.084       .  S
C1533      C1534   1.405       .  A
C1534      C1535   1.504       .  S
C1535      H1539   1.111       .  S
C1535      H1540   1.110       .  S
C1535      H1541   1.110       .  S
C1538      H1542   1.105       .  S
C1538      H1543   1.111       .  S
C1538      H1544   1.110       .  S
C1545      C1546   1.410       .  A
C1545      C1550   1.411       .  A
C1545      H1552   1.084       .  S
C1546      C1547   1.413       .  A
C1547      C1548   1.411       .  A
C1547      C1554   1.503       .  S
C1548      C1549   1.411       .  A
C1548      H1553   1.083       .  S
C1549      C1550   1.417       .  A
C1550      C1551   1.505       .  S
C1551      H1555   1.110       .  S
C1551      H1556   1.110       .  S
C1551      H1557   1.108       .  S
C1554      H1558   1.110       .  S
C1554      H1559   1.108       .  S
C1554      H1560   1.111       .  S
C1561      C1562   1.409       .  A
C1561      C1566   1.408       .  A
C1561      H1568   1.084       .  S
C1562      C1563   1.416       .  A
C1563      C1564   1.411       .  A
C1563      C1570   1.506       .  S
C1564      C1565   1.407       .  A
C1564      H1569   1.084       .  S
C1565      C1566   1.412       .  A
C1566      C1567   1.507       .  S
C1567      H1571   1.111       .  S
C1567      H1572   1.109       .  S
C1567      H1573   1.110       .  S
C1570      H1574   1.109       .  S
C1570      H1575   1.110       .  S
C1570      H1576   1.111       .  S
C1577      C1578   1.405       .  A
C1577      C1582   1.401       .  A
C1577      H1584   1.083       .  S
C1578      C1579   1.418       .  A
C1579      C1580   1.401       .  A
C1579      C1586   1.509       .  S
C1580      C1581   1.406       .  A
C1580      H1585   1.083       .  S
C1581      C1582   1.419       .  A
C1582      C1583   1.509       .  S
C1583      H1587   1.111       .  S
C1583      H1588   1.111       .  S
C1583      H1589   1.110       .  S
C1586      H1590   1.110       .  S
C1586      H1591   1.108       .  S
C1586      H1592   1.111       .  S
C1593      C1594   1.406       .  A
C1593      C1598   1.400       .  A
C1593      H1600   1.085       .  S
C1594      C1595   1.414       .  A
C1595      C1596   1.417       .  A
C1595      C1602   1.503       .  S
C1596      C1597   1.408       .  A
C1596      H1601   1.084       .  S
C1597      C1598   1.414       .  A
C1598      C1599   1.511       .  S
C1599      H1603   1.111       .  S
C1599      H1604   1.109       .  S
C1599      H1605   1.109       .  S
C1602      H1606   1.110       .  S
C1602      H1607   1.110       .  S
C1602      H1608   1.111       .  S
C1609      C1610   1.407       .  A
C1609      C1614   1.405       .  A
C1609      H1616   1.084       .  S
C1610      C1611   1.421       .  A
C1611      C1612   1.398       .  A
C1611      C1618   1.511       .  S
C1612      C1613   1.402       .  A
C1612      H1617   1.084       .  S
C1613      C1614   1.416       .  A
C1614      C1615   1.508       .  S
C1615      H1619   1.111       .  S
C1615      H1620   1.110       .  S
C1615      H1621   1.109       .  S
C1618      H1622   1.110       .  S
C1618      H1623   1.110       .  S
C1618      H1624   1.111       .  S
C1625      C1626   1.415       .  A
C1625      C1630   1.413       .  A
C1625      H1632   1.084       .  S
C1626      C1627   1.425       .  A
C1627      C1628   1.398       .  A
C1627      C1634   1.511       .  S
C1628      C1629   1.401       .  A
C1628      H1633   1.085       .  S
C1629      C1630   1.410       .  A
C1630      C1631   1.504       .  S
C1631      H1635   1.109       .  S
C1631      H1636   1.110       .  S
C1631      H1637   1.110       .  S
C1634      H1638   1.110       .  S
C1634      H1639   1.110       .  S
C1634      H1640   1.111       .  S
C1641      C1642   1.403       .  A
C1641      C1646   1.408       .  A
C1641      H1648   1.084       .  S
C1642      C1643   1.422       .  A
C1643      C1644   1.406       .  A
C1643      C1650   1.508       .  S
C1644      C1645   1.399       .  A
C1644      H1649   1.084       .  S
C1645      C1646   1.419       .  A
C1646      C1647   1.507       .  S
C1647      H1651   1.110       .  S
C1647      H1652   1.110       .  S
C1647      H1653   1.109       .  S
C1650      H1654   1.109       .  S
C1650      H1655   1.108       .  S
C1650      H1656   1.111       .  S
C1657      C1658   1.404       .  A
C1657      C1662   1.403       .  A
C1657      H1664   1.084       .  S
C1658      C1659   1.411       .  A
C1659      C1660   1.397       .  A
C1659      C1666   1.508       .  S
C1660      C1661   1.406       .  A
C1660      H1665   1.084       .  S
C1661      C1662   1.416       .  A
C1662      C1663   1.507       .  S
C1663      H1667   1.111       .  S
C1663      H1668   1.110       .  S
C1663      H1669   1.111       .  S
C1666      H1670   1.110       .  S
C1666      H1671   1.109       .  S
C1666      H1672   1.111       .  S
C1673      C1674   1.401       .  A
C1673      C1678   1.403       .  A
C1673      H1680   1.084       .  S
C1674      C1675   1.411       .  A
C1675      C1676   1.401       .  A
C1675      C1682   1.509       .  S
C1676      C1677   1.405       .  A
C1676      H1681   1.084       .  S
C1677      C1678   1.416       .  A
C1678      C1679   1.508       .  S
C1679      H1683   1.111       .  S
C1679      H1684   1.110       .  S
C1679      H1685   1.109       .  S
C1682      H1686   1.109       .  S
C1682      H1687   1.111       .  S
C1682      H1688   1.111       .  S
C1689      C1690   1.396       .  A
C1689      C1694   1.405       .  A
C1689      H1696   1.084       .  S
C1690      C1691   1.424       .  A
C1691      C1692   1.410       .  A
C1691      C1698   1.509       .  S
C1692      C1693   1.398       .  A
C1692      H1697   1.084       .  S
C1693      C1694   1.419       .  A
C1694      C1695   1.500       .  S
C1695      H1699   1.111       .  S
C1695      H1700   1.109       .  S
C1695      H1701   1.108       .  S
C1698      H1702   1.108       .  S
C1698      H1703   1.107       .  S
C1698      H1704   1.111       .  S
C1705      C1706   1.397       .  A
C1705      C1710   1.404       .  A
C1705      H1712   1.085       .  S
C1706      C1707   1.417       .  A
C1707      C1708   1.410       .  A
C1707      C1714   1.507       .  S
C1708      C1709   1.404       .  A
C1708      H1713   1.084       .  S
C1709      C1710   1.421       .  A
C1710      C1711   1.506       .  S
C1711      H1715   1.111       .  S
C1711      H1716   1.107       .  S
C1711      H1717   1.109       .  S
C1714      H1718   1.110       .  S
C1714      H1719   1.109       .  S
C1714      H1720   1.111       .  S
C1721      C1722   1.413       .  A
C1721      C1726   1.408       .  A
C1721      H1728   1.084       .  S
C1722      C1723   1.411       .  A
C1723      C1724   1.410       .  A
C1723      C1730   1.506       .  S
C1724      C1725   1.408       .  A
C1724      H1729   1.085       .  S
C1725      C1726   1.404       .  A
C1726      C1727   1.505       .  S
C1727      H1731   1.111       .  S
C1727      H1732   1.111       .  S
C1727      H1733   1.110       .  S
C1730      H1734   1.110       .  S
C1730      H1735   1.108       .  S
C1730      H1736   1.110       .  S
C1737      C1738   1.397       .  A
C1737      C1742   1.406       .  A
C1737      H1744   1.084       .  S
C1738      C1739   1.419       .  A
C1739      C1740   1.411       .  A
C1739      C1746   1.507       .  S
C1740      C1741   1.403       .  A
C1740      H1745   1.084       .  S
C1741      C1742   1.424       .  A
C1742      C1743   1.508       .  S
C1743      H1747   1.111       .  S
C1743      H1748   1.109       .  S
C1743      H1749   1.108       .  S
C1746      H1750   1.110       .  S
C1746      H1751   1.108       .  S
C1746      H1752   1.111       .  S
C1753      C1754   1.408       .  A
C1753      C1758   1.410       .  A
C1753      H1760   1.083       .  S
C1754      C1755   1.418       .  A
C1755      C1756   1.415       .  A
C1755      C1762   1.503       .  S
C1756      C1757   1.410       .  A
C1756      H1761   1.083       .  S
C1757      C1758   1.414       .  A
C1758      C1759   1.502       .  S
C1759      H1763   1.110   1_565  S
C1759      H1764   1.106       .  S
C1759      H1765   1.111       .  S
C1762      H1766   1.108       .  S
C1762      H1767   1.110   1_565  S
C1762      H1768   1.111       .  S
C1769      C1770   1.400       .  A
C1769      C1774   1.410       .  A
C1769      H1776   1.084       .  S
C1770      C1771   1.415       .  A
C1771      C1772   1.412       .  A
C1771      C1778   1.506       .  S
C1772      C1773   1.408       .  A
C1772      H1777   1.084       .  S
C1773      C1774   1.426       .  A
C1774      C1775   1.509       .  S
C1775      H1779   1.111       .  S
C1775      H1780   1.110       .  S
C1775      H1781   1.110       .  S
C1778      H1782   1.109       .  S
C1778      H1783   1.110       .  S
C1778      H1784   1.111       .  S
C1785      C1786   1.408       .  A
C1785      C1790   1.409       .  A
C1785      H1792   1.084       .  S
C1786      C1787   1.407       .  A
C1787      C1788   1.412       .  A
C1787      C1794   1.503       .  S
C1788      C1789   1.412       .  A
C1788      H1793   1.084       .  S
C1789      C1790   1.409       .  A
C1790      C1791   1.503       .  S
C1791      H1795   1.109       .  S
C1791      H1796   1.108       .  S
C1791      H1797   1.110       .  S
C1794      H1798   1.110       .  S
C1794      H1799   1.110       .  S
C1794      H1800   1.111       .  S
C1801      C1802   1.408       .  A
C1801      C1806   1.410       .  A
C1801      H1808   1.084       .  S
C1802      C1803   1.413       .  A
C1803      C1804   1.407       .  A
C1803      C1810   1.506       .  S
C1804      C1805   1.408       .  A
C1804      H1809   1.084       .  S
C1805      C1806   1.415       .  A
C1806      C1807   1.507       .  S
C1807      H1811   1.111       .  S
C1807      H1812   1.109       .  S
C1807      H1813   1.111       .  S
C1810      H1814   1.107       .  S
C1810      H1815   1.110       .  S
C1810      H1816   1.111       .  S
C1817      C1818   1.398       .  A
C1817      C1822   1.410       .  A
C1817      H1824   1.083       .  S
C1818      C1819   1.423       .  A
C1819      C1820   1.406       .  A
C1819      C1826   1.508       .  S
C1820      C1821   1.397       .  A
C1820      H1825   1.085       .  S
C1821      C1822   1.423       .  A
C1822      C1823   1.503       .  S
C1823      H1827   1.110       .  S
C1823      H1828   1.110       .  S
C1823      H1829   1.102       .  S
C1826      H1830   1.109       .  S
C1826      H1831   1.110       .  S
C1826      H1832   1.110       .  S
C1833      C1834   1.410       .  A
C1833      C1838   1.414       .  A
C1833      H1840   1.083       .  S
C1834      C1835   1.413       .  A
C1835      C1836   1.412       .  A
C1835      C1842   1.503       .  S
C1836      C1837   1.411       .  A
C1836      H1841   1.083       .  S
C1837      C1838   1.417       .  A
C1838      C1839   1.505       .  S
C1839      H1843   1.110       .  S
C1839      H1844   1.110   1_554  S
C1839      H1845   1.108       .  S
C1842      H1846   1.110   1_554  S
C1842      H1847   1.108       .  S
C1842      H1848   1.110       .  S
