geometry optimzed in LAMMPS
_audit_creation_date              2020-12-01 
_audit_creation_method            'lammps2cif' 
_symmetry_space_group_name_H-M    'P1' 
_symmetry_Int_Tables_number       1 
_symmetry_cell_setting            triclinic 
loop_ 
_symmetry_equiv_pos_as_xyz 
  x,y,z 
_cell_length_a                    35.96555559 
_cell_length_b                    36.00101484191012 
_cell_length_c                    43.27192197489788 
_cell_angle_alpha                 89.55170280630998 
_cell_angle_beta                  91.58795726967843 
_cell_angle_gamma                 120.6037919790698 
loop_ 
_atom_site_label 
_atom_site_type_symbol 
_atom_site_fract_x 
_atom_site_fract_y 
_atom_site_fract_z 
_atom_site_charge 
C1          C  0.33780460  0.17706892  0.01476528     0.30300
C2          C  0.33004361  0.17429713  0.45121091     0.30300
C3          C  0.35858931  0.15535900  0.99794195    -0.05900
C4          C  0.29123006  0.15335852  0.00114113    -0.06700
C5          C  0.35678552  0.22074751  0.99835180    -0.06600
C6          C  0.35397089  0.15267894  0.46579869    -0.05900
C7          C  0.28710478  0.15154269  0.46879891    -0.06700
C8          C  0.35377457  0.21950974  0.46612340    -0.06600
C9          C  0.37115208  0.12798964  0.45621575    -0.32000
N10         N  0.38785362  0.11844266  0.98142280     0.14500
C11         C  0.38026591  0.13478352  0.00694362    -0.32000
H12         H  0.38879824  0.13077445  0.03042026     0.16500
C13         C  0.24327735  0.12993734  0.46152711    -0.30900
N14         N  0.22144965  0.12000167  0.48820139     0.13300
C15         C  0.25008286  0.13433671  0.01241433    -0.30900
C16         C  0.37367965  0.26175924  0.45606169    -0.31200
N17         N  0.38711782  0.28784084  0.98139206     0.13800
H18         H  0.37796751  0.27265177  0.43235247     0.16400
C19         C  0.37631501  0.26331881  0.00710439    -0.31200
H20         H  0.38271282  0.27608067  0.03044050     0.16400
H21         H  0.24125516  0.13229617  0.03632396     0.16400
H22         H  0.37119310  0.11717240  0.43297869     0.16500
H23         H  0.22802160  0.12187739  0.43875426     0.16400
C24         C  0.33238970  0.15587532  0.20140355     0.30300
C25         C  0.33855596  0.15904257  0.26500761     0.30300
C26         C  0.35550791  0.13409199  0.21663876    -0.05900
C27         C  0.35641613  0.20144068  0.21618604    -0.06700
C28         C  0.28911106  0.13504685  0.21844640    -0.06600
C29         C  0.35777383  0.13493023  0.24889335    -0.05900
C30         C  0.36007459  0.20237483  0.24840996    -0.06700
C31         C  0.29233980  0.13626099  0.25077413    -0.06600
C32         C  0.37783379  0.11258438  0.25781430    -0.32000
N33         N  0.38965020  0.10028697  0.23219899     0.14500
C34         C  0.37635164  0.11311761  0.20676984    -0.32000
H35         H  0.38144965  0.10764152  0.18310889     0.16500
C36         C  0.38071466  0.24457305  0.25782732    -0.30900
N37         N  0.38865563  0.26948693  0.23251763     0.13300
C38         C  0.37332456  0.24390670  0.20695941    -0.30900
C39         C  0.25076731  0.11467723  0.26139429    -0.31200
N40         N  0.22286993  0.10203624  0.23677544     0.13800
H41         H  0.24103752  0.10731285  0.28513716     0.16400
C42         C  0.24553439  0.11420350  0.21047012    -0.31200
H43         H  0.23107898  0.10829172  0.18745481     0.16400
H44         H  0.37382815  0.25553865  0.18377036     0.16400
H45         H  0.38399370  0.10584411  0.28119839     0.16500
H46         H  0.38808099  0.25637173  0.28145176     0.16400
C47         C  0.16871814  0.34546026  0.04877428     0.30300
C48         C  0.16194437  0.34417470  0.48523639     0.30300
C49         C  0.14473881  0.36701204  0.03448529    -0.05900
C50         C  0.21156503  0.36717963  0.03140159    -0.06700
C51         C  0.14482480  0.30001534  0.03332363    -0.06600
C52         C  0.14025906  0.36508031  0.50232450    -0.05900
C53         C  0.20767115  0.36731941  0.49933018    -0.06700
C54         C  0.14132587  0.29973616  0.50093155    -0.06600
C55         C  0.11531022  0.38263750  0.49430610    -0.32000
N56         N  0.10709094  0.39781126  0.02013414     0.14500
C57         C  0.12489482  0.38873171  0.04501071    -0.32000
H58         H  0.12336398  0.39707266  0.06872616     0.16500
C59         C  0.24847150  0.38722788  0.48777543    -0.30900
N60         N  0.27697217  0.39801882  0.51183898     0.13300
C61         C  0.25514165  0.38515400  0.03850763    -0.30900
C62         C  0.11856330  0.25730608  0.49144832    -0.31200
N63         N  0.10921483  0.23186917  0.01665338     0.13800
H64         H  0.10869669  0.24541640  0.46799946     0.16400
C65         C  0.12504740  0.25716106  0.04234634    -0.31200
H66         H  0.12255200  0.24499994  0.06558148     0.16400
H67         H  0.27008743  0.38823336  0.06111501     0.16400
H68         H  0.10416090  0.38502164  0.47130504     0.16500
H69         H  0.25684641  0.39220456  0.46364527     0.16400
C70         C  0.16307633  0.32403479  0.23555315     0.30300
C71         C  0.16818629  0.32575727  0.29919285     0.30300
C72         C  0.14294209  0.34684122  0.25172455    -0.05900
C73         C  0.14204216  0.27998964  0.25159690    -0.06700
C74         C  0.20890890  0.34606619  0.25019500    -0.06600
C75         C  0.14429981  0.34722512  0.28399466    -0.05900
C76         C  0.14397346  0.28045705  0.28387607    -0.06700
C77         C  0.21155166  0.34771268  0.28251835    -0.06600
C78         C  0.12081924  0.36610834  0.29290862    -0.32000
N79         N  0.10826815  0.37893063  0.26711475     0.14500
C80         C  0.12133420  0.36716847  0.24192899    -0.32000
H81         H  0.11472965  0.37228718  0.21820255     0.16500
C82         C  0.12405763  0.23772117  0.29315378    -0.30900
N83         N  0.11157821  0.21245411  0.26747911     0.13300
C84         C  0.12269529  0.23769614  0.24217973    -0.30900
C85         C  0.25489347  0.36916408  0.29103663    -0.31200
N86         N  0.27801597  0.37887448  0.26490497     0.13800
H87         H  0.26854796  0.37691857  0.31431458     0.16400
C88         C  0.25049039  0.36437235  0.24004732    -0.31200
H89         H  0.26053393  0.36739957  0.21638384     0.16400
H90         H  0.11800099  0.22576648  0.21867476     0.16400
H91         H  0.11257048  0.36978719  0.31606006     0.16500
H92         H  0.11889312  0.22562653  0.31653639     0.16400
O93         O  0.44404729  0.02828464  0.01845319    -0.88100
C94         C  0.43256951  0.44588728  0.44992726     0.88000
Mg95       Mg  0.49302863  0.09527476  0.01896278     1.58100
O96         O  0.47778696  0.43511469  0.02025128    -0.87800
O97         O  0.42266343  0.47244531  0.04853161    -0.75100
C98         C  0.17573146  0.09974225  0.49096760     0.93000
O99         O  0.46456053  0.04910637  0.44626897    -0.74900
O100        O  0.15749231  0.12144286  0.48478876    -0.82500
Mg101      Mg  0.40678155  0.50322995  0.47554897     1.58000
C102        C  0.08648004  0.42279624  0.01886548     0.92900
O103        O  0.34287461  0.45653344  0.99835275    -0.80700
H104        H  0.47277234  0.42264311  0.06550710    -0.06100
C105        C  0.06505319  0.00710496  0.45527111     0.87900
O106        O  0.03694741  0.08367812  0.05195266    -0.75200
O107        O  0.42465682  0.45495140  0.47545718    -0.88000
O108        O  0.04824117  0.40502883  0.00729273    -0.80800
C109        C  0.41173084  0.33379733  0.48260957     0.93000
C110        C  0.32249949  0.41826389  0.00881532     0.92900
Mg111      Mg  0.09052041  0.01507523  0.02400887     1.58000
O112        O  0.15509288  0.06131122  0.50123247    -0.80700
O113        O  0.03224841  0.46990179  0.05291220    -0.75000
O114        O  0.39315097  0.35377228  0.49149648    -0.80800
O115        O  0.38733625  0.05394732  0.47598038    -0.82500
O116        O  0.10427319  0.16606164  0.00673803    -0.80800
C117        C  0.99332313  0.44118921  0.04681276     0.87300
O118        O  0.07311571  0.06392539  0.02339327    -0.88000
O119        O  0.05402619  0.49007331  0.48084921    -0.88100
O120        O  0.07547422  0.04605227  0.45082571    -0.75100
Mg121      Mg  0.41117385  0.41650373  0.01706383     1.58000
O122        O  0.45226708  0.35270556  0.47884150    -0.82500
H123        H  0.43422129  0.03076090  0.06342289    -0.06200
O124        O  0.01971814  0.08372732  0.47841391    -0.87800
H125        H  0.02383293  0.09627558  0.43315566    -0.06100
H126        H  0.08328621  0.07234886  0.06909476    -0.06200
C127        C  0.50368259  0.07767995  0.45200236     0.87300
C128        C  0.43319845  0.51140780  0.04407905     0.87900
C129        C  0.06575400  0.07371567  0.04882950     0.87900
H130        H  0.06425742  0.48786686  0.43592339    -0.06200
O131        O  0.46153538  0.43612518  0.44675761    -0.75200
Mg132      Mg  0.08676682  0.10234850  0.48185617     1.58000
H133        H  0.41544900  0.44783883  0.42961736    -0.06200
C134        C  0.40898612  0.09402388  0.48239124     0.92900
O135        O  0.04456770  0.16629563  0.01911786    -0.82500
C136        C  0.08510639  0.18577097  0.01516176     0.93000
O137        O  0.34082731  0.39675765  0.01496952    -0.82500
Mg138      Mg  0.00450977  0.42336819  0.47996443     1.58200
O139        O  0.44781904  0.11254247  0.49282787    -0.80800
O140        O  0.10864915  0.46300475  0.02501889    -0.82500
O141        O  0.01937104  0.43729773  0.22894657    -0.88100
C142        C  0.43572074  0.42300226  0.29593797     0.88000
Mg143      Mg  0.08663199  0.48580568  0.23106367     1.58100
O144        O  0.42515901  0.47031223  0.22719810    -0.87800
O145        O  0.46338424  0.41623920  0.19760246    -0.75100
C146        C  0.09081550  0.16662496  0.26579967     0.93000
O147        O  0.03904115  0.45547163  0.30230924    -0.74900
O148        O  0.11281608  0.14862920  0.27169510    -0.82500
Mg149      Mg  0.49370033  0.39904692  0.27027657     1.58000
C150        C  0.41423124  0.07927431  0.23352651     0.92900
O151        O  0.44780991  0.33618549  0.24478316    -0.80700
H152        H  0.41401407  0.46755489  0.18153127    -0.06100
C153        C  0.99769563  0.05502993  0.29657500     0.86300
O154        O  0.07587193  0.03117044  0.19958331    -0.75200
O155        O  0.44532344  0.41670843  0.27012963    -0.88000
O156        O  0.39581737  0.04061985  0.24325100    -0.80800
C157        C  0.32387633  0.40383237  0.26251169     0.93000
C158        C  0.40914661  0.31527967  0.23409334     0.92900
Mg159      Mg  0.00640364  0.08279633  0.22919757     1.58000
O160        O  0.05213932  0.14588129  0.25501002    -0.80700
O161        O  0.46148131  0.02602419  0.19734160    -0.75000
O162        O  0.34342865  0.38568237  0.25186446    -0.80800
O163        O  0.04414211  0.37936430  0.27053852    -0.82500
O164        O  0.15734833  0.09601906  0.24855870    -0.80800
C165        C  0.43219534  0.98707052  0.20137882     0.87300
O166        O  0.05545561  0.06564894  0.22952495    -0.88000
O167        O  0.48093981  0.04469784  0.27040193    -0.88100
O168        O  0.03674906  0.06565020  0.30189414    -0.75100
Mg169      Mg  0.40670064  0.40374435  0.22780620     1.58000
O170        O  0.34309832  0.44409859  0.26825329    -0.82500
H171        H  0.02203695  0.42874992  0.18365634    -0.06200
O172        O  0.07501190  0.01128183  0.27257806    -0.87800
H173        H  0.08662145  0.01387366  0.31817281    -0.06100
H174        H  0.06504157  0.07840854  0.18446440    -0.06200
C175        C  0.06824194  0.49445627  0.29834236     0.87300
C176        C  0.50253918  0.42707591  0.20278248     0.87900
C177        C  0.06588533  0.05976633  0.20390011     0.87900
H178        H  0.47815584  0.05352182  0.31562040    -0.06200
O179        O  0.42604460  0.45175855  0.30047914    -0.75200
Mg180      Mg  0.09355305  0.07804127  0.27202727     1.58000
H181        H  0.43725421  0.40470525  0.31535942    -0.06200
C182        C  0.08433880  0.40057973  0.26546103     0.92900
O183        O  0.15761763  0.03706754  0.23324840    -0.82500
C184        C  0.17698058  0.07736342  0.23893238     0.93000
O185        O  0.38710627  0.33315456  0.22807415    -0.82500
Mg186      Mg  0.41392267  0.99588525  0.26886097     1.58200
O187        O  0.10334066  0.43935394  0.25588103    -0.80800
O188        O  0.45458170  0.10120675  0.22874552    -0.82500
C189        C  0.16220713  0.34631482  0.44985262    -0.05000
C190        C  0.16518755  0.38251665  0.43464923    -0.04900
C191        C  0.16784034  0.38635186  0.40256369    -0.23100
C192        C  0.17036002  0.35543782  0.38486480     0.19200
C193        C  0.17228945  0.32150076  0.39983855     0.16400
C194        C  0.16872665  0.31742018  0.43216368    -0.18100
C195        C  0.17905484  0.29307928  0.38222182    -0.19900
C196        C  0.18042211  0.29633986  0.34997733    -0.12500
C197        C  0.17285037  0.32657684  0.33451127     0.04200
C198        C  0.17182138  0.35842333  0.35250198    -0.24600
H199        H  0.16697668  0.40897597  0.44748189     0.09300
H200        H  0.16860858  0.41392559  0.39165233     0.12900
H201        H  0.17229835  0.29249154  0.44349778     0.12800
H202        H  0.18295793  0.26814399  0.39331885     0.12600
H203        H  0.18669565  0.27455910  0.33713396     0.13100
H204        H  0.17285792  0.38598251  0.34160757     0.15100
C205        C  0.17265470  0.34871640  0.08407439    -0.05000
C206        C  0.20699715  0.38557092  0.09874761    -0.04900
C207        C  0.21221060  0.38824922  0.13091349    -0.23100
C208        C  0.18185775  0.35516105  0.14935502     0.19200
C209        C  0.14464392  0.32045557  0.13518661     0.16400
C210        C  0.13991133  0.31780548  0.10276073    -0.18100
C211        C  0.11235808  0.28952966  0.15376981    -0.19900
C212        C  0.11811932  0.29164125  0.18590112    -0.12500
C213        C  0.15728309  0.32314179  0.20026815     0.04200
C214        C  0.18758878  0.35671803  0.18171327    -0.24600
H215        H  0.22997556  0.41276461  0.08544331     0.09300
H216        H  0.23992707  0.41629459  0.14133910     0.12900
H217        H  0.11048576  0.29201118  0.09226299     0.12800
H218        H  0.08252570  0.26382322  0.14349847     0.12600
H219        H  0.09150001  0.26850203  0.19948350     0.13100
H220        H  0.21513046  0.38457210  0.19227510     0.15100
C221        C  0.34415441  0.16412000  0.30029618    -0.05000
C222        C  0.38220249  0.17020390  0.31527770    -0.04900
C223        C  0.38760431  0.17446327  0.34741810    -0.23100
C224        C  0.35594393  0.17477685  0.36532860     0.19200
C225        C  0.31998370  0.17364308  0.35051115     0.16400
C226        C  0.31495856  0.16955021  0.31814465    -0.18100
C227        C  0.29012971  0.17744692  0.36834043    -0.19900
C228        C  0.29428157  0.17917140  0.40061998    -0.12500
C229        C  0.32722239  0.17525399  0.41587791     0.04200
C230        C  0.35997875  0.17686617  0.39773493    -0.24600
H231        H  0.40835563  0.17233850  0.30219804     0.09300
H232        H  0.41656728  0.17749103  0.35824341     0.12900
H233        H  0.28871483  0.17142738  0.30701836     0.12800
H234        H  0.26343501  0.17885208  0.35735687     0.12600
H235        H  0.27169805  0.18384327  0.41353375     0.13100
H236        H  0.38889649  0.18009439  0.40863225     0.15100
C237        C  0.34440670  0.17795302  0.04999606    -0.05000
C238        C  0.38280165  0.21072480  0.06434922    -0.04900
C239        C  0.38859732  0.21287183  0.09649811    -0.23100
C240        C  0.35716380  0.18089800  0.11505358     0.19200
C241        C  0.32115604  0.14497332  0.10086335     0.16400
C242        C  0.31545837  0.14329830  0.06850500    -0.18100
C243        C  0.29186384  0.11103318  0.11930523    -0.19900
C244        C  0.29666804  0.11410443  0.15150819    -0.12500
C245        C  0.32939213  0.15205425  0.16612483     0.04200
C246        C  0.36146616  0.18388762  0.14747667    -0.24600
H247        H  0.40876257  0.23481284  0.05077960     0.09300
H248        H  0.41768126  0.23955889  0.10681551     0.12900
H249        H  0.28878082  0.11472011  0.05788958     0.12800
H250        H  0.26517590  0.08215000  0.10885724     0.12600
H251        H  0.27448453  0.08657994  0.16494192     0.13100
H252        H  0.39006598  0.21073192  0.15797065     0.15100
C253        C  0.33780456  0.17706893  0.51476524     0.30300
C254        C  0.33004361  0.17429712  0.95121093     0.30300
C255        C  0.35858930  0.15535903  0.49794193    -0.05900
C256        C  0.29123002  0.15335856  0.50114108    -0.06700
C257        C  0.35678558  0.22074751  0.49835177    -0.06600
C258        C  0.35397086  0.15267891  0.96579871    -0.05900
C259        C  0.28710483  0.15154272  0.96879896    -0.06700
C260        C  0.35377450  0.21950973  0.96612342    -0.06600
C261        C  0.37115205  0.12798958  0.95621571    -0.32000
N262        N  0.38785365  0.11844267  0.48142281     0.14500
C263        C  0.38026584  0.13478353  0.50694362    -0.32000
H264        H  0.38879808  0.13077439  0.53042031     0.16500
C265        C  0.24327742  0.12993747  0.96152715    -0.30900
N266        N  0.22144968  0.12000170  0.98820143     0.13300
C267        C  0.25008280  0.13433667  0.51241426    -0.30900
C268        C  0.37367960  0.26175921  0.95606172    -0.31200
N269        N  0.38711777  0.28784084  0.48139209     0.13800
H270        H  0.37796753  0.27265182  0.93235227     0.16400
C271        C  0.37631507  0.26331877  0.50710438    -0.31200
H272        H  0.38271289  0.27608061  0.53044054     0.16400
H273        H  0.24125503  0.13229608  0.53632402     0.16400
H274        H  0.37119309  0.11717248  0.93297886     0.16500
H275        H  0.22802167  0.12187752  0.93875429     0.16400
C276        C  0.33238979  0.15587538  0.70140357     0.30300
C277        C  0.33855603  0.15904267  0.76500760     0.30300
C278        C  0.35550807  0.13409213  0.71663876    -0.05900
C279        C  0.35641612  0.20144072  0.71618603    -0.06700
C280        C  0.28911116  0.13504685  0.71844641    -0.06600
C281        C  0.35777397  0.13493037  0.74889336    -0.05900
C282        C  0.36007467  0.20237492  0.74840994    -0.06700
C283        C  0.29233987  0.13626109  0.75077413    -0.06600
C284        C  0.37783389  0.11258451  0.75781425    -0.32000
N285        N  0.38965038  0.10028715  0.73219900     0.14500
C286        C  0.37635172  0.11311767  0.70676982    -0.32000
H287        H  0.38144954  0.10764138  0.68310890     0.16500
C288        C  0.38071478  0.24457313  0.75782723    -0.30900
N289        N  0.38865564  0.26948697  0.73251757     0.13300
C290        C  0.37332445  0.24390668  0.70695936    -0.30900
C291        C  0.25076737  0.11467736  0.76139424    -0.31200
N292        N  0.22287000  0.10203623  0.73677539     0.13800
H293        H  0.24103749  0.10731297  0.78513718     0.16400
C294        C  0.24553452  0.11420356  0.71047008    -0.31200
H295        H  0.23107916  0.10829190  0.68745478     0.16400
H296        H  0.37382796  0.25553858  0.68377030     0.16400
H297        H  0.38399372  0.10584402  0.78119857     0.16500
H298        H  0.38808122  0.25637197  0.78145178     0.16400
C299        C  0.16871821  0.34546030  0.54877428     0.30300
C300        C  0.16194434  0.34417467  0.98523637     0.30300
C301        C  0.14473880  0.36701201  0.53448534    -0.05900
C302        C  0.21156509  0.36717970  0.53140158    -0.06700
C303        C  0.14482490  0.30001536  0.53332362    -0.06600
C304        C  0.14025900  0.36508028  0.00232445    -0.05900
C305        C  0.20767113  0.36731943  0.99933020    -0.06700
C306        C  0.14132578  0.29973614  0.00093156    -0.06600
C307        C  0.11531010  0.38263742  0.99430609    -0.32000
N308        N  0.10709096  0.39781127  0.52013416     0.14500
C309        C  0.12489471  0.38873161  0.54501073    -0.32000
H310        H  0.12336385  0.39707256  0.56872625     0.16500
C311        C  0.24847151  0.38722799  0.98777544    -0.30900
N312        N  0.27697212  0.39801875  0.01183900     0.13300
C313        C  0.25514167  0.38515405  0.53850758    -0.30900
C314        C  0.11856318  0.25730604  0.99144833    -0.31200
N315        N  0.10921493  0.23186917  0.51665330     0.13800
H316        H  0.10869673  0.24541640  0.96799971     0.16400
C317        C  0.12504737  0.25716103  0.54234630    -0.31200
H318        H  0.12255180  0.24499992  0.56558138     0.16400
H319        H  0.27008763  0.38823344  0.56111513     0.16400
H320        H  0.10416070  0.38502157  0.97130495     0.16500
H321        H  0.25684644  0.39220473  0.96364537     0.16400
C322        C  0.16307632  0.32403485  0.73555321     0.30300
C323        C  0.16818628  0.32575731  0.79919292     0.30300
C324        C  0.14294210  0.34684126  0.75172460    -0.05900
C325        C  0.14204217  0.27998971  0.75159697    -0.06700
C326        C  0.20890888  0.34606622  0.75019507    -0.06600
C327        C  0.14429977  0.34722511  0.78399470    -0.05900
C328        C  0.14397349  0.28045711  0.78387614    -0.06700
C329        C  0.21155167  0.34771273  0.78251843    -0.06600
C330        C  0.12081914  0.36610828  0.79290869    -0.32000
N331        N  0.10826825  0.37893072  0.76711473     0.14500
C332        C  0.12133427  0.36716852  0.74192906    -0.32000
H333        H  0.11472960  0.37228724  0.71820233     0.16500
C334        C  0.12405774  0.23772122  0.79315385    -0.30900
N335        N  0.11157827  0.21245422  0.76747914     0.13300
C336        C  0.12269525  0.23769625  0.74217982    -0.30900
C337        C  0.25489355  0.36916414  0.79103670    -0.31200
N338        N  0.27801597  0.37887443  0.76490497     0.13800
H339        H  0.26854802  0.37691866  0.81431446     0.16400
C340        C  0.25049030  0.36437227  0.74004743    -0.31200
H341        H  0.26053380  0.36739943  0.71638365     0.16400
H342        H  0.11800082  0.22576653  0.71867462     0.16400
H343        H  0.11257036  0.36978702  0.81605986     0.16500
H344        H  0.11889337  0.22562658  0.81653638     0.16400
O345        O  0.44404722  0.02828465  0.51845319    -0.88100
C346        C  0.43256955  0.44588739  0.94992729     0.88000
Mg347      Mg  0.49302857  0.09527470  0.51896279     1.58100
O348        O  0.47778685  0.43511458  0.52025138    -0.87800
O349        O  0.42266330  0.47244531  0.54853149    -0.75100
C350        C  0.17573152  0.09974230  0.99096762     0.93000
O351        O  0.46456042  0.04910643  0.94626901    -0.74900
O352        O  0.15749239  0.12144294  0.98478885    -0.82500
Mg353      Mg  0.40678143  0.50322988  0.97554898     1.58000
C354        C  0.08648002  0.42279623  0.51886545     0.92900
O355        O  0.34287471  0.45653349  0.49835268    -0.80700
H356        H  0.47277225  0.42264282  0.56550726    -0.06100
C357        C  0.06505312  0.00710483  0.95527106     0.87900
O358        O  0.03694753  0.08367829  0.55195276    -0.75200
O359        O  0.42465689  0.45495148  0.97545723    -0.88000
O360        O  0.04824117  0.40502881  0.50729267    -0.80800
C361        C  0.41173092  0.33379735  0.98260957     0.93000
C362        C  0.32249954  0.41826395  0.50881533     0.92900
Mg363      Mg  0.09052037  0.01507526  0.52400892     1.58000
O364        O  0.15509290  0.06131125  0.00123246    -0.80700
O365        O  0.03224831  0.46990174  0.55291230    -0.75000
O366        O  0.39315104  0.35377231  0.99149643    -0.80800
O367        O  0.38733623  0.05394733  0.97598044    -0.82500
O368        O  0.10427315  0.16606156  0.50673786    -0.80800
C369        C  0.99332308  0.44118909  0.54681284     0.87300
O370        O  0.07311574  0.06392547  0.52339335    -0.88000
O371        O  0.05402630  0.49007326  0.98084916    -0.88100
O372        O  0.07547427  0.04605224  0.95082580    -0.75100
Mg373      Mg  0.41117376  0.41650369  0.51706382     1.58000
O374        O  0.45226717  0.35270555  0.97884157    -0.82500
H375        H  0.43422106  0.03076087  0.56342292    -0.06200
O376        O  0.01971824  0.08372755  0.97841388    -0.87800
H377        H  0.02383301  0.09627537  0.93315560    -0.06100
H378        H  0.08328642  0.07234903  0.56909494    -0.06200
C379        C  0.50368250  0.07767995  0.95200231     0.87300
C380        C  0.43319842  0.51140787  0.54407904     0.87900
C381        C  0.06575408  0.07371583  0.54882956     0.87900
H382        H  0.06425759  0.48786714  0.93592343    -0.06200
O383        O  0.46153533  0.43612514  0.94675759    -0.75200
Mg384      Mg  0.08676690  0.10234862  0.98185622     1.58000
H385        H  0.41544910  0.44783903  0.92961742    -0.06200
C386        C  0.40898613  0.09402391  0.98239120     0.92900
O387        O  0.04456778  0.16629559  0.51911792    -0.82500
C388        C  0.08510643  0.18577091  0.51516169     0.93000
O389        O  0.34082734  0.39675774  0.51496960    -0.82500
Mg390      Mg  0.00450983  0.42336813  0.97996438     1.58200
O391        O  0.44781909  0.11254259  0.99282778    -0.80800
O392        O  0.10864906  0.46300473  0.52501895    -0.82500
O393        O  0.01937101  0.43729772  0.72894649    -0.88100
C394        C  0.43572057  0.42300213  0.79593794     0.88000
Mg395      Mg  0.08663195  0.48580558  0.73106368     1.58100
O396        O  0.42515916  0.47031225  0.72719809    -0.87800
O397        O  0.46338423  0.41623905  0.69760238    -0.75100
C398        C  0.09081564  0.16662506  0.76579969     0.93000
O399        O  0.03904132  0.45547165  0.80230927    -0.74900
O400        O  0.11281629  0.14862936  0.77169505    -0.82500
Mg401      Mg  0.49370031  0.39904696  0.77027650     1.58000
C402        C  0.41423136  0.07927444  0.73352654     0.92900
O403        O  0.44780994  0.33618557  0.74478301    -0.80700
H404        H  0.41401433  0.46755502  0.68153122    -0.06100
C405        C  0.99769547  0.05502985  0.79657497     0.86300
O406        O  0.07587204  0.03117042  0.69958336    -0.75200
O407        O  0.44532331  0.41670834  0.77012960    -0.88000
O408        O  0.39581746  0.04062001  0.74325108    -0.80800
C409        C  0.32387636  0.40383242  0.76251165     0.93000
C410        C  0.40914655  0.31527968  0.73409331     0.92900
Mg411      Mg  0.00640362  0.08279632  0.72919763     1.58000
O412        O  0.05213943  0.14588134  0.75501011    -0.80700
O413        O  0.46148126  0.02602416  0.69734167    -0.75000
O414        O  0.34342871  0.38568248  0.75186440    -0.80800
O415        O  0.04414212  0.37936417  0.77053845    -0.82500
O416        O  0.15734837  0.09601901  0.74855862    -0.80800
C417        C  0.43219537  0.98707043  0.70137883     0.87300
O418        O  0.05545563  0.06564888  0.72952498    -0.88000
O419        O  0.48093994  0.04469771  0.77040189    -0.88100
O420        O  0.03674892  0.06565011  0.80189421    -0.75100
Mg421      Mg  0.40670060  0.40374431  0.72780614     1.58000
O422        O  0.34309830  0.44409863  0.76825323    -0.82500
H423        H  0.02203703  0.42874975  0.68365631    -0.06200
O424        O  0.07501195  0.01128180  0.77257806    -0.87800
H425        H  0.08662152  0.01387355  0.81817276    -0.06100
H426        H  0.06504193  0.07840862  0.68446454    -0.06200
C427        C  0.06824209  0.49445632  0.79834234     0.87300
C428        C  0.50253915  0.42707581  0.70278239     0.87900
C429        C  0.06588551  0.05976637  0.70390015     0.87900
H430        H  0.47815583  0.05352176  0.81562032    -0.06200
O431        O  0.42604445  0.45175846  0.80047909    -0.75200
Mg432      Mg  0.09355307  0.07804126  0.77202730     1.58000
H433        H  0.43725399  0.40470517  0.81535937    -0.06200
C434        C  0.08433878  0.40057967  0.76546100     0.92900
O435        O  0.15761772  0.03706744  0.73324847    -0.82500
C436        C  0.17698065  0.07736337  0.73893233     0.93000
O437        O  0.38710613  0.33315453  0.72807426    -0.82500
Mg438      Mg  0.41392273  0.99588525  0.76886095     1.58200
O439        O  0.10334053  0.43935386  0.75588096    -0.80800
O440        O  0.45458185  0.10120684  0.72874561    -0.82500
C441        C  0.16220722  0.34631486  0.94985261    -0.05000
C442        C  0.16518750  0.38251659  0.93464920    -0.04900
C443        C  0.16784045  0.38635196  0.90256373    -0.23100
C444        C  0.17036003  0.35543791  0.88486481     0.19200
C445        C  0.17228951  0.32150085  0.89983855     0.16400
C446        C  0.16872675  0.31742025  0.93216364    -0.18100
C447        C  0.17905493  0.29307941  0.88222181    -0.19900
C448        C  0.18042207  0.29633993  0.84997736    -0.12500
C449        C  0.17285032  0.32657689  0.83451131     0.04200
C450        C  0.17182128  0.35842336  0.85250202    -0.24600
H451        H  0.16697647  0.40897610  0.94748203     0.09300
H452        H  0.16860877  0.41392587  0.89165231     0.12900
H453        H  0.17229843  0.29249150  0.94349775     0.12800
H454        H  0.18295812  0.26814413  0.89331888     0.12600
H455        H  0.18669559  0.27455905  0.83713394     0.13100
H456        H  0.17285778  0.38598261  0.84160758     0.15100
C457        C  0.17265483  0.34871650  0.58407438    -0.05000
C458        C  0.20699737  0.38557103  0.59874759    -0.04900
C459        C  0.21221072  0.38824920  0.63091351    -0.23100
C460        C  0.18185778  0.35516106  0.64935500     0.19200
C461        C  0.14464401  0.32045557  0.63518657     0.16400
C462        C  0.13991136  0.31780557  0.60276065    -0.18100
C463        C  0.11235819  0.28952964  0.65376976    -0.19900
C464        C  0.11811929  0.29164135  0.68590110    -0.12500
C465        C  0.15728302  0.32314191  0.70026816     0.04200
C466        C  0.18758878  0.35671819  0.68171331    -0.24600
H467        H  0.22997557  0.41276445  0.58544350     0.09300
H468        H  0.23992716  0.41629447  0.64133912     0.12900
H469        H  0.11048603  0.29201160  0.59226296     0.12800
H470        H  0.08252575  0.26382308  0.64349837     0.12600
H471        H  0.09149995  0.26850217  0.69948349     0.13100
H472        H  0.21513013  0.38457196  0.69227502     0.15100
C473        C  0.34415443  0.16412008  0.80029616    -0.05000
C474        C  0.38220240  0.17020384  0.81527772    -0.04900
C475        C  0.38760422  0.17446315  0.84741810    -0.23100
C476        C  0.35594383  0.17477680  0.86532858     0.19200
C477        C  0.31998365  0.17364310  0.85051113     0.16400
C478        C  0.31495847  0.16955020  0.81814461    -0.18100
C479        C  0.29012963  0.17744690  0.86834042    -0.19900
C480        C  0.29428157  0.17917147  0.90061998    -0.12500
C481        C  0.32722234  0.17525395  0.91587792     0.04200
C482        C  0.35997857  0.17686605  0.89773489    -0.24600
H483        H  0.40835572  0.17233842  0.80219800     0.09300
H484        H  0.41656700  0.17749082  0.85824340     0.12900
H485        H  0.28871488  0.17142728  0.80701839     0.12800
H486        H  0.26343494  0.17885194  0.85735692     0.12600
H487        H  0.27169817  0.18384344  0.91353371     0.13100
H488        H  0.38889665  0.18009426  0.90863232     0.15100
C489        C  0.34440659  0.17795305  0.54999604    -0.05000
C490        C  0.38280157  0.21072476  0.56434921    -0.04900
C491        C  0.38859723  0.21287177  0.59649810    -0.23100
C492        C  0.35716372  0.18089797  0.61505357     0.19200
C493        C  0.32115592  0.14497333  0.60086336     0.16400
C494        C  0.31545822  0.14329833  0.56850499    -0.18100
C495        C  0.29186372  0.11103318  0.61930529    -0.19900
C496        C  0.29666801  0.11410455  0.65150825    -0.12500
C497        C  0.32939215  0.15205433  0.66612485     0.04200
C498        C  0.36146623  0.18388766  0.64747668    -0.24600
H499        H  0.40876258  0.23481275  0.55077962     0.09300
H500        H  0.41768118  0.23955874  0.60681550     0.12900
H501        H  0.28878069  0.11472016  0.55788958     0.12800
H502        H  0.26517587  0.08215005  0.60885741     0.12600
H503        H  0.27448457  0.08658006  0.66494205     0.13100
H504        H  0.39006593  0.21073173  0.65797057     0.15100
C505        C  0.33780457  0.67706892  0.01476529     0.30300
C506        C  0.33004359  0.67429714  0.45121091     0.30300
C507        C  0.35858933  0.65535906  0.99794195    -0.05900
C508        C  0.29123004  0.65335848  0.00114113    -0.06700
C509        C  0.35678547  0.72074751  0.99835181    -0.06600
C510        C  0.35397085  0.65267892  0.46579870    -0.05900
C511        C  0.28710480  0.65154273  0.46879892    -0.06700
C512        C  0.35377457  0.71950978  0.46612339    -0.06600
C513        C  0.37115209  0.62798966  0.45621576    -0.32000
N514        N  0.38785363  0.61844271  0.98142279     0.14500
C515        C  0.38026594  0.63478360  0.00694362    -0.32000
H516        H  0.38879826  0.63077451  0.03042025     0.16500
C517        C  0.24327737  0.62993741  0.46152712    -0.30900
N518        N  0.22144968  0.62000163  0.48820140     0.13300
C519        C  0.25008282  0.63433655  0.01241432    -0.30900
C520        C  0.37367968  0.76175931  0.45606167    -0.31200
N521        N  0.38711780  0.78784084  0.98139207     0.13800
H522        H  0.37796754  0.77265185  0.43235252     0.16400
C523        C  0.37631499  0.76331880  0.00710439    -0.31200
H524        H  0.38271281  0.77608064  0.03044050     0.16400
H525        H  0.24125511  0.63229596  0.03632395     0.16400
H526        H  0.37119313  0.61717244  0.43297870     0.16500
H527        H  0.22802161  0.62187746  0.43875427     0.16400
C528        C  0.33238973  0.65587535  0.20140355     0.30300
C529        C  0.33855599  0.65904260  0.26500761     0.30300
C530        C  0.35550793  0.63409201  0.21663875    -0.05900
C531        C  0.35641612  0.70144070  0.21618605    -0.06700
C532        C  0.28911111  0.63504687  0.21844641    -0.06600
C533        C  0.35777391  0.63493031  0.24889335    -0.05900
C534        C  0.36007458  0.70237485  0.24840996    -0.06700
C535        C  0.29233984  0.63626103  0.25077414    -0.06600
C536        C  0.37783385  0.61258445  0.25781429    -0.32000
N537        N  0.38965022  0.60028701  0.23219900     0.14500
C538        C  0.37635157  0.61311754  0.20676983    -0.32000
H539        H  0.38144948  0.60764133  0.18310891     0.16500
C540        C  0.38071465  0.74457307  0.25782733    -0.30900
N541        N  0.38865563  0.76948695  0.23251763     0.13300
C542        C  0.37332455  0.74390671  0.20695941    -0.30900
C543        C  0.25076734  0.61467732  0.26139429    -0.31200
N544        N  0.22286997  0.60203634  0.23677543     0.13800
H545        H  0.24103751  0.60731293  0.28513715     0.16400
C546        C  0.24553447  0.61420354  0.21047013    -0.31200
H547        H  0.23107905  0.60829173  0.18745474     0.16400
H548        H  0.37382814  0.75553864  0.18377037     0.16400
H549        H  0.38399371  0.60584411  0.28119843     0.16500
H550        H  0.38808098  0.75637176  0.28145170     0.16400
C551        C  0.16871811  0.84546026  0.04877429     0.30300
C552        C  0.16194436  0.84417469  0.48523639     0.30300
C553        C  0.14473876  0.86701201  0.03448530    -0.05900
C554        C  0.21156500  0.86717963  0.03140160    -0.06700
C555        C  0.14482476  0.80001530  0.03332366    -0.06600
C556        C  0.14025902  0.86508026  0.50232451    -0.05900
C557        C  0.20767116  0.86731940  0.49933018    -0.06700
C558        C  0.14132586  0.79973616  0.50093154    -0.06600
C559        C  0.11531012  0.88263739  0.49430610    -0.32000
N560        N  0.10709101  0.89781135  0.02013414     0.14500
C561        C  0.12489484  0.88873176  0.04501070    -0.32000
H562        H  0.12336405  0.89707275  0.06872614     0.16500
C563        C  0.24847152  0.88722792  0.48777543    -0.30900
N564        N  0.27697216  0.89801879  0.51183899     0.13300
C565        C  0.25514164  0.88515410  0.03850763    -0.30900
C566        C  0.11856330  0.75730609  0.49144832    -0.31200
N567        N  0.10921484  0.73186913  0.01665336     0.13800
H568        H  0.10869666  0.74541635  0.46799947     0.16400
C569        C  0.12504734  0.75716097  0.04234635    -0.31200
H570        H  0.12255190  0.74499984  0.06558142     0.16400
H571        H  0.27008746  0.88823353  0.06111501     0.16400
H572        H  0.10416078  0.88502149  0.47130503     0.16500
H573        H  0.25684646  0.89220471  0.46364528     0.16400
C574        C  0.16307635  0.82403480  0.23555316     0.30300
C575        C  0.16818630  0.82575728  0.29919286     0.30300
C576        C  0.14294206  0.84684118  0.25172456    -0.05900
C577        C  0.14204225  0.77998964  0.25159691    -0.06700
C578        C  0.20890890  0.84606618  0.25019502    -0.06600
C579        C  0.14429974  0.84722505  0.28399466    -0.05900
C580        C  0.14397351  0.78045705  0.28387607    -0.06700
C581        C  0.21155168  0.84771273  0.28251837    -0.06600
C582        C  0.12081911  0.86610820  0.29290862    -0.32000
N583        N  0.10826811  0.87893058  0.26711476     0.14500
C584        C  0.12133414  0.86716840  0.24192900    -0.32000
H585        H  0.11472956  0.87228711  0.21820253     0.16500
C586        C  0.12405760  0.73772116  0.29315378    -0.30900
N587        N  0.11157820  0.71245413  0.26747911     0.13300
C588        C  0.12269530  0.73769612  0.24217970    -0.30900
C589        C  0.25489352  0.86916407  0.29103665    -0.31200
N590        N  0.27801596  0.87887438  0.26490495     0.13800
H591        H  0.26854802  0.87691855  0.31431447     0.16400
C592        C  0.25049035  0.86437219  0.24004732    -0.31200
H593        H  0.26053381  0.86739935  0.21638384     0.16400
H594        H  0.11800091  0.72576649  0.21867482     0.16400
H595        H  0.11257030  0.86978699  0.31606006     0.16500
H596        H  0.11889309  0.72562654  0.31653638     0.16400
O597        O  0.44404722  0.52828455  0.01845317    -0.88100
C598        C  0.43256954  0.94588737  0.44992726     0.88000
Mg599      Mg  0.49302857  0.59527468  0.01896277     1.58100
O600        O  0.47778694  0.93511473  0.02025126    -0.87800
O601        O  0.42266341  0.97244534  0.04853157    -0.75100
C602        C  0.17573151  0.59974220  0.49096759     0.93000
O603        O  0.46456051  0.54910639  0.44626899    -0.74900
O604        O  0.15749239  0.62144284  0.48478877    -0.82500
Mg605      Mg  0.40678155  0.00322992  0.47554897     1.58000
C606        C  0.08648004  0.92279628  0.01886548     0.92900
O607        O  0.34287463  0.95653352  0.99835275    -0.80700
H608        H  0.47277232  0.92264295  0.06550697    -0.06100
C609        C  0.06505310  0.50710478  0.45527110     0.87900
O610        O  0.03694745  0.58367817  0.05195266    -0.75200
O611        O  0.42465683  0.95495144  0.47545719    -0.88000
O612        O  0.04824114  0.90502879  0.00729276    -0.80800
C613        C  0.41173090  0.83379737  0.48260957     0.93000
C614        C  0.32249950  0.91826397  0.00881531     0.92900
Mg615      Mg  0.09052039  0.51507519  0.02400886     1.58000
O616        O  0.15509289  0.56131116  0.50123243    -0.80700
O617        O  0.03224836  0.96990166  0.05291223    -0.75000
O618        O  0.39315098  0.85377226  0.49149649    -0.80800
O619        O  0.38733625  0.55394736  0.47598038    -0.82500
O620        O  0.10427311  0.66606152  0.00673803    -0.80800
C621        C  0.99332305  0.94118908  0.04681276     0.87300
O622        O  0.07311573  0.56392538  0.02339329    -0.88000
O623        O  0.05402627  0.99007343  0.48084920    -0.88100
O624        O  0.07547412  0.54605213  0.45082570    -0.75100
Mg625      Mg  0.41117386  0.91650378  0.01706383     1.58000
O626        O  0.45226713  0.85270564  0.47884150    -0.82500
H627        H  0.43422119  0.53076091  0.06342287    -0.06200
O628        O  0.01971816  0.58372738  0.47841389    -0.87800
H629        H  0.02383299  0.59627543  0.43315559    -0.06100
H630        H  0.08328625  0.57234895  0.06909478    -0.06200
C631        C  0.50368258  0.57767991  0.45200235     0.87300
C632        C  0.43319852  0.01140787  0.04407906     0.87900
C633        C  0.06575404  0.57371572  0.04882951     0.87900
H634        H  0.06425754  0.98786695  0.43592329    -0.06200
O635        O  0.46153542  0.93612529  0.44675760    -0.75200
Mg636      Mg  0.08676685  0.60234851  0.48185617     1.58000
H637        H  0.41544904  0.94783894  0.42961737    -0.06200
C638        C  0.40898613  0.59402391  0.48239124     0.92900
O639        O  0.04456767  0.66629559  0.01911785    -0.82500
C640        C  0.08510634  0.68577089  0.01516174     0.93000
O641        O  0.34082733  0.89675775  0.01496951    -0.82500
Mg642      Mg  0.00450988  0.92336829  0.47996442     1.58200
O643        O  0.44781906  0.61254252  0.49282786    -0.80800
O644        O  0.10864911  0.96300479  0.02501886    -0.82500
O645        O  0.01937102  0.93729768  0.22894655    -0.88100
C646        C  0.43572074  0.92300226  0.29593796     0.88000
Mg647      Mg  0.08663197  0.98580565  0.23106367     1.58100
O648        O  0.42515903  0.97031229  0.22719808    -0.87800
O649        O  0.46338415  0.91623904  0.19760247    -0.75100
C650        C  0.09081548  0.66662496  0.26579966     0.93000
O651        O  0.03904134  0.95547168  0.30230926    -0.74900
O652        O  0.11281606  0.64862922  0.27169510    -0.82500
Mg653      Mg  0.49370033  0.89904698  0.27027658     1.58000
C654        C  0.41423127  0.57927436  0.23352652     0.92900
O655        O  0.44780991  0.83618553  0.24478316    -0.80700
H656        H  0.41401411  0.96755501  0.18153117    -0.06100
C657        C  0.99769561  0.55502997  0.29657499     0.86300
O658        O  0.07587198  0.53117051  0.19958328    -0.75200
O659        O  0.44532348  0.91670850  0.27012961    -0.88000
O660        O  0.39581740  0.54061990  0.24325101    -0.80800
C661        C  0.32387631  0.90383234  0.26251166     0.93000
C662        C  0.40914659  0.81527968  0.23409334     0.92900
Mg663      Mg  0.00640356  0.58279622  0.22919758     1.58000
O664        O  0.05213931  0.64588130  0.25501000    -0.80700
O665        O  0.46148123  0.52602406  0.19734158    -0.75000
O666        O  0.34342866  0.88568239  0.25186445    -0.80800
O667        O  0.04414210  0.87936431  0.27053854    -0.82500
O668        O  0.15734834  0.59601912  0.24855870    -0.80800
C669        C  0.43219525  0.48707037  0.20137881     0.87300
O670        O  0.05545548  0.56564878  0.22952497    -0.88000
O671        O  0.48093977  0.54469773  0.27040194    -0.88100
O672        O  0.03674905  0.56565026  0.30189413    -0.75100
Mg673      Mg  0.40670060  0.90374430  0.22780620     1.58000
O674        O  0.34309826  0.94409857  0.26825328    -0.82500
H675        H  0.02203696  0.92875010  0.18365629    -0.06200
O676        O  0.07501188  0.51128178  0.27257807    -0.87800
H677        H  0.08662135  0.51387348  0.31817279    -0.06100
H678        H  0.06504166  0.57840868  0.18446448    -0.06200
C679        C  0.06824203  0.99445635  0.29834234     0.87300
C680        C  0.50253913  0.92707589  0.20278246     0.87900
C681        C  0.06588534  0.55976636  0.20390013     0.87900
H682        H  0.47815593  0.55352200  0.31562029    -0.06200
O683        O  0.42604450  0.95175848  0.30047915    -0.75200
Mg684      Mg  0.09355301  0.57804123  0.27202727     1.58000
H685        H  0.43725427  0.90470523  0.31535941    -0.06200
C686        C  0.08433879  0.90057973  0.26546104     0.92900
O687        O  0.15761767  0.53706763  0.23324839    -0.82500
C688        C  0.17698061  0.57736351  0.23893236     0.93000
O689        O  0.38710624  0.83315456  0.22807416    -0.82500
Mg690      Mg  0.41392268  0.49588522  0.26886097     1.58200
O691        O  0.10334064  0.93935391  0.25588100    -0.80800
O692        O  0.45458172  0.60120680  0.22874552    -0.82500
C693        C  0.16220713  0.84631485  0.44985262    -0.05000
C694        C  0.16518758  0.88251670  0.43464924    -0.04900
C695        C  0.16784036  0.88635194  0.40256370    -0.23100
C696        C  0.17036005  0.85543791  0.38486481     0.19200
C697        C  0.17228945  0.82150083  0.39983854     0.16400
C698        C  0.16872657  0.81742016  0.43216367    -0.18100
C699        C  0.17905487  0.79307937  0.38222181    -0.19900
C700        C  0.18042214  0.79633996  0.34997733    -0.12500
C701        C  0.17285039  0.82657692  0.33451128     0.04200
C702        C  0.17182140  0.85842346  0.35250197    -0.24600
H703        H  0.16697671  0.90897601  0.44748192     0.09300
H704        H  0.16860861  0.91392567  0.39165235     0.12900
H705        H  0.17229819  0.79249150  0.44349773     0.12800
H706        H  0.18295794  0.76814407  0.39331883     0.12600
H707        H  0.18669565  0.77455918  0.33713395     0.13100
H708        H  0.17285790  0.88598245  0.34160763     0.15100
C709        C  0.17265467  0.84871643  0.08407439    -0.05000
C710        C  0.20699714  0.88557094  0.09874762    -0.04900
C711        C  0.21221055  0.88824913  0.13091348    -0.23100
C712        C  0.18185777  0.85516100  0.14935501     0.19200
C713        C  0.14464395  0.82045550  0.13518660     0.16400
C714        C  0.13991132  0.81780551  0.10276072    -0.18100
C715        C  0.11235817  0.78952964  0.15376982    -0.19900
C716        C  0.11811934  0.79164130  0.18590113    -0.12500
C717        C  0.15728311  0.82314186  0.20026816     0.04200
C718        C  0.18758878  0.85671806  0.18171327    -0.24600
H719        H  0.22997552  0.91276464  0.08544336     0.09300
H720        H  0.23992718  0.91629467  0.14133919     0.12900
H721        H  0.11048571  0.79201119  0.09226295     0.12800
H722        H  0.08252560  0.76382302  0.14349843     0.12600
H723        H  0.09150006  0.76850215  0.19948353     0.13100
H724        H  0.21513045  0.88457215  0.19227508     0.15100
C725        C  0.34415439  0.66411998  0.30029618    -0.05000
C726        C  0.38220240  0.67020376  0.31527771    -0.04900
C727        C  0.38760418  0.67446305  0.34741811    -0.23100
C728        C  0.35594382  0.67477669  0.36532860     0.19200
C729        C  0.31998366  0.67364305  0.35051115     0.16400
C730        C  0.31495850  0.66955013  0.31814465    -0.18100
C731        C  0.29012973  0.67744699  0.36834043    -0.19900
C732        C  0.29428157  0.67917144  0.40061998    -0.12500
C733        C  0.32722231  0.67525389  0.41587792     0.04200
C734        C  0.35997862  0.67686599  0.39773493    -0.24600
H735        H  0.40835556  0.67233837  0.30219805     0.09300
H736        H  0.41656712  0.67749076  0.35824343     0.12900
H737        H  0.28871475  0.67142729  0.30701837     0.12800
H738        H  0.26343502  0.67885214  0.35735687     0.12600
H739        H  0.27169810  0.68384335  0.41353374     0.13100
H740        H  0.38889640  0.68009423  0.40863225     0.15100
C741        C  0.34440667  0.67795303  0.04999607    -0.05000
C742        C  0.38280160  0.71072473  0.06434924    -0.04900
C743        C  0.38859730  0.71287183  0.09649811    -0.23100
C744        C  0.35716377  0.68089798  0.11505357     0.19200
C745        C  0.32115602  0.64497332  0.10086335     0.16400
C746        C  0.31545830  0.64329830  0.06850500    -0.18100
C747        C  0.29186378  0.61103311  0.11930522    -0.19900
C748        C  0.29666806  0.61410448  0.15150817    -0.12500
C749        C  0.32939210  0.65205427  0.16612482     0.04200
C750        C  0.36146614  0.68388765  0.14747667    -0.24600
H751        H  0.40876272  0.73481293  0.05077950     0.09300
H752        H  0.41768114  0.73955886  0.10681549     0.12900
H753        H  0.28878080  0.61472015  0.05788959     0.12800
H754        H  0.26517609  0.58215015  0.10885732     0.12600
H755        H  0.27448441  0.58657980  0.16494201     0.13100
H756        H  0.39006591  0.71073193  0.15797063     0.15100
C757        C  0.33780459  0.67706895  0.51476525     0.30300
C758        C  0.33004360  0.67429714  0.95121093     0.30300
C759        C  0.35858933  0.65535907  0.49794193    -0.05900
C760        C  0.29123004  0.65335856  0.50114109    -0.06700
C761        C  0.35678557  0.72074755  0.49835177    -0.06600
C762        C  0.35397090  0.65267898  0.96579871    -0.05900
C763        C  0.28710481  0.65154270  0.96879896    -0.06700
C764        C  0.35377445  0.71950973  0.96612343    -0.06600
C765        C  0.37115209  0.62798966  0.95621571    -0.32000
N766        N  0.38785369  0.61844275  0.48142280     0.14500
C767        C  0.38026599  0.63478367  0.50694362    -0.32000
H768        H  0.38879828  0.63077458  0.53042023     0.16500
C769        C  0.24327741  0.62993747  0.96152714    -0.30900
N770        N  0.22144967  0.62000157  0.98820142     0.13300
C771        C  0.25008284  0.63433671  0.51241428    -0.30900
C772        C  0.37367957  0.76175920  0.95606173    -0.31200
N773        N  0.38711786  0.78784088  0.48139209     0.13800
H774        H  0.37796748  0.77265177  0.93235228     0.16400
C775        C  0.37631510  0.76331883  0.50710438    -0.31200
H776        H  0.38271292  0.77608070  0.53044053     0.16400
H777        H  0.24125507  0.63229614  0.53632404     0.16400
H778        H  0.37119309  0.61717253  0.93297885     0.16500
H779        H  0.22802169  0.62187768  0.93875428     0.16400
C780        C  0.33238975  0.65587534  0.70140357     0.30300
C781        C  0.33855596  0.65904257  0.76500760     0.30300
C782        C  0.35550807  0.63409213  0.71663877    -0.05900
C783        C  0.35641608  0.70144068  0.71618602    -0.06700
C784        C  0.28911111  0.63504681  0.71844641    -0.06600
C785        C  0.35777389  0.63493027  0.74889337    -0.05900
C786        C  0.36007461  0.70237484  0.74840993    -0.06700
C787        C  0.29233981  0.63626100  0.75077413    -0.06600
C788        C  0.37783375  0.61258433  0.75781425    -0.32000
N789        N  0.38965024  0.60028698  0.73219899     0.14500
C790        C  0.37635174  0.61311770  0.70676983    -0.32000
H791        H  0.38144964  0.60764151  0.68310890     0.16500
C792        C  0.38071470  0.74457304  0.75782722    -0.30900
N793        N  0.38865553  0.76948691  0.73251759     0.13300
C794        C  0.37332441  0.74390668  0.70695936    -0.30900
C795        C  0.25076731  0.61467725  0.76139425    -0.31200
N796        N  0.22286997  0.60203620  0.73677539     0.13800
H797        H  0.24103744  0.60731289  0.78513716     0.16400
C798        C  0.24553446  0.61420346  0.71047008    -0.31200
H799        H  0.23107911  0.60829174  0.68745479     0.16400
H800        H  0.37382797  0.75553860  0.68377029     0.16400
H801        H  0.38399361  0.60584386  0.78119854     0.16500
H802        H  0.38808113  0.75637183  0.78145184     0.16400
C803        C  0.16871819  0.84546027  0.54877428     0.30300
C804        C  0.16194428  0.84417462  0.98523638     0.30300
C805        C  0.14473881  0.86701202  0.53448534    -0.05900
C806        C  0.21156508  0.86717965  0.53140158    -0.06700
C807        C  0.14482491  0.80001535  0.53332361    -0.06600
C808        C  0.14025897  0.86508026  0.00232446    -0.05900
C809        C  0.20767108  0.86731932  0.99933020    -0.06700
C810        C  0.14132573  0.79973610  0.00093159    -0.06600
C811        C  0.11531012  0.88263748  0.99430608    -0.32000
N812        N  0.10709094  0.89781126  0.52013415     0.14500
C813        C  0.12489475  0.88873167  0.54501073    -0.32000
H814        H  0.12336385  0.89707262  0.56872620     0.16500
C815        C  0.24847145  0.88722786  0.98777543    -0.30900
N816        N  0.27697211  0.89801880  0.01183899     0.13300
C817        C  0.25514167  0.88515404  0.53850758    -0.30900
C818        C  0.11856315  0.75730601  0.99144833    -0.31200
N819        N  0.10921495  0.73186918  0.51665331     0.13800
H820        H  0.10869672  0.74541644  0.96799971     0.16400
C821        C  0.12504752  0.75716107  0.54234629    -0.31200
H822        H  0.12255204  0.74499994  0.56558141     0.16400
H823        H  0.27008762  0.88823349  0.56111514     0.16400
H824        H  0.10416068  0.88502159  0.97130497     0.16500
H825        H  0.25684636  0.89220458  0.96364533     0.16400
C826        C  0.16307628  0.82403476  0.73555321     0.30300
C827        C  0.16818625  0.82575731  0.79919292     0.30300
C828        C  0.14294200  0.84684115  0.75172459    -0.05900
C829        C  0.14204218  0.77998964  0.75159697    -0.06700
C830        C  0.20890884  0.84606623  0.75019507    -0.06600
C831        C  0.14429972  0.84722508  0.78399470    -0.05900
C832        C  0.14397346  0.78045706  0.78387615    -0.06700
C833        C  0.21155165  0.84771276  0.78251843    -0.06600
C834        C  0.12081915  0.86610832  0.79290868    -0.32000
N835        N  0.10826821  0.87893070  0.76711472     0.14500
C836        C  0.12133424  0.86716850  0.74192905    -0.32000
H837        H  0.11472968  0.87228730  0.71820233     0.16500
C838        C  0.12405768  0.73772115  0.79315385    -0.30900
N839        N  0.11157823  0.71245411  0.76747914     0.13300
C840        C  0.12269536  0.73769619  0.74217982    -0.30900
C841        C  0.25489354  0.86916421  0.79103670    -0.31200
N842        N  0.27801595  0.87887447  0.76490497     0.13800
H843        H  0.26854802  0.87691872  0.81431445     0.16400
C844        C  0.25049029  0.86437233  0.74004743    -0.31200
H845        H  0.26053382  0.86739947  0.71638366     0.16400
H846        H  0.11800101  0.72576646  0.71867463     0.16400
H847        H  0.11257045  0.86978713  0.81605986     0.16500
H848        H  0.11889325  0.72562648  0.81653639     0.16400
O849        O  0.44404721  0.52828470  0.51845320    -0.88100
C850        C  0.43256950  0.94588730  0.94992730     0.88000
Mg851      Mg  0.49302856  0.59527474  0.51896279     1.58100
O852        O  0.47778695  0.93511465  0.52025137    -0.87800
O853        O  0.42266329  0.97244531  0.54853151    -0.75100
C854        C  0.17573151  0.59974222  0.99096762     0.93000
O855        O  0.46456035  0.54910634  0.94626899    -0.74900
O856        O  0.15749242  0.62144288  0.98478883    -0.82500
Mg857      Mg  0.40678149  0.00322992  0.97554898     1.58000
C858        C  0.08648002  0.92279623  0.51886544     0.92900
O859        O  0.34287469  0.95653347  0.49835272    -0.80700
H860        H  0.47277229  0.92264298  0.56550725    -0.06100
C861        C  0.06505325  0.50710485  0.95527106     0.87900
O862        O  0.03694743  0.58367813  0.55195277    -0.75200
O863        O  0.42465704  0.95495155  0.97545725    -0.88000
O864        O  0.04824118  0.90502883  0.50729265    -0.80800
C865        C  0.41173090  0.83379736  0.98260957     0.93000
C866        C  0.32249953  0.91826393  0.50881534     0.92900
Mg867      Mg  0.09052035  0.51507523  0.52400891     1.58000
O868        O  0.15509287  0.56131119  0.00123250    -0.80700
O869        O  0.03224834  0.96990182  0.55291230    -0.75000
O870        O  0.39315102  0.85377232  0.99149643    -0.80800
O871        O  0.38733619  0.55394734  0.97598046    -0.82500
O872        O  0.10427317  0.66606160  0.50673786    -0.80800
C873        C  0.99332310  0.94118919  0.54681284     0.87300
O874        O  0.07311565  0.56392537  0.52339333    -0.88000
O875        O  0.05402627  0.99007329  0.98084918    -0.88100
O876        O  0.07547434  0.54605224  0.95082581    -0.75100
Mg877      Mg  0.41117379  0.91650372  0.51706381     1.58000
O878        O  0.45226715  0.85270557  0.97884156    -0.82500
H879        H  0.43422114  0.53076081  0.56342291    -0.06200
O880        O  0.01971821  0.58372738  0.97841388    -0.87800
H881        H  0.02383287  0.59627540  0.93315565    -0.06100
H882        H  0.08328628  0.57234880  0.56909492    -0.06200
C883        C  0.50368242  0.57767989  0.95200232     0.87300
C884        C  0.43319837  0.01140783  0.54407902     0.87900
C885        C  0.06575396  0.57371566  0.54882956     0.87900
H886        H  0.06425728  0.98786703  0.93592342    -0.06200
O887        O  0.46153538  0.93612517  0.94675755    -0.75200
Mg888      Mg  0.08676690  0.60234850  0.98185622     1.58000
H889        H  0.41544891  0.94783870  0.92961758    -0.06200
C890        C  0.40898612  0.59402394  0.98239121     0.92900
O891        O  0.04456779  0.66629564  0.51911793    -0.82500
C892        C  0.08510646  0.68577097  0.51516170     0.93000
O893        O  0.34082731  0.89675769  0.51496958    -0.82500
Mg894      Mg  0.00450984  0.92336819  0.97996439     1.58200
O895        O  0.44781907  0.61254258  0.99282776    -0.80800
O896        O  0.10864904  0.96300472  0.52501897    -0.82500
O897        O  0.01937101  0.93729776  0.72894651    -0.88100
C898        C  0.43572058  0.92300222  0.79593793     0.88000
Mg899      Mg  0.08663196  0.98580563  0.73106369     1.58100
O900        O  0.42515909  0.97031222  0.72719808    -0.87800
O901        O  0.46338432  0.91623916  0.69760236    -0.75100
C902        C  0.09081559  0.66662499  0.76579969     0.93000
O903        O  0.03904129  0.95547165  0.80230923    -0.74900
O904        O  0.11281622  0.64862927  0.77169505    -0.82500
Mg905      Mg  0.49370026  0.89904692  0.77027650     1.58000
C906        C  0.41423123  0.57927427  0.73352653     0.92900
O907        O  0.44780989  0.83618546  0.74478302    -0.80700
H908        H  0.41401424  0.96755497  0.68153120    -0.06100
C909        C  0.99769549  0.55502991  0.79657498     0.86300
O910        O  0.07587203  0.53117041  0.69958338    -0.75200
O911        O  0.44532332  0.91670840  0.77012959    -0.88000
O912        O  0.39581734  0.54061983  0.74325107    -0.80800
C913        C  0.32387635  0.90383245  0.76251165     0.93000
C914        C  0.40914651  0.81527964  0.73409333     0.92900
Mg915      Mg  0.00640363  0.58279632  0.72919762     1.58000
O916        O  0.05213936  0.64588126  0.75501012    -0.80700
O917        O  0.46148127  0.52602422  0.69734165    -0.75000
O918        O  0.34342871  0.88568251  0.75186438    -0.80800
O919        O  0.04414211  0.87936423  0.77053845    -0.82500
O920        O  0.15734836  0.59601904  0.74855862    -0.80800
C921        C  0.43219541  0.48707046  0.70137883     0.87300
O922        O  0.05545565  0.56564894  0.72952497    -0.88000
O923        O  0.48093995  0.54469776  0.77040190    -0.88100
O924        O  0.03674894  0.56565020  0.80189421    -0.75100
Mg925      Mg  0.40670063  0.90374435  0.72780613     1.58000
O926        O  0.34309830  0.94409865  0.76825325    -0.82500
H927        H  0.02203707  0.92874988  0.68365631    -0.06200
O928        O  0.07501189  0.51128176  0.77257804    -0.87800
H929        H  0.08662146  0.51387353  0.81817269    -0.06100
H930        H  0.06504170  0.57840847  0.68446446    -0.06200
C931        C  0.06824207  0.99445630  0.79834234     0.87300
C932        C  0.50253927  0.92707589  0.70278238     0.87900
C933        C  0.06588543  0.55976631  0.70390014     0.87900
H934        H  0.47815584  0.55352180  0.81562034    -0.06200
O935        O  0.42604447  0.95175854  0.80047909    -0.75200
Mg936      Mg  0.09355306  0.57804126  0.77202729     1.58000
H937        H  0.43725397  0.90470518  0.81535943    -0.06200
C938        C  0.08433877  0.90057971  0.76546100     0.92900
O939        O  0.15761769  0.53706745  0.73324848    -0.82500
C940        C  0.17698061  0.57736336  0.73893233     0.93000
O941        O  0.38710616  0.83315456  0.72807426    -0.82500
Mg942      Mg  0.41392273  0.49588521  0.76886096     1.58200
O943        O  0.10334056  0.93935390  0.75588097    -0.80800
O944        O  0.45458172  0.60120668  0.72874561    -0.82500
C945        C  0.16220715  0.84631480  0.94985261    -0.05000
C946        C  0.16518746  0.88251659  0.93464922    -0.04900
C947        C  0.16784038  0.88635189  0.90256375    -0.23100
C948        C  0.17036004  0.85543793  0.88486481     0.19200
C949        C  0.17228952  0.82150086  0.89983855     0.16400
C950        C  0.16872676  0.81742026  0.93216364    -0.18100
C951        C  0.17905487  0.79307935  0.88222181    -0.19900
C952        C  0.18042205  0.79633998  0.84997737    -0.12500
C953        C  0.17285033  0.82657693  0.83451130     0.04200
C954        C  0.17182131  0.85842341  0.85250202    -0.24600
H955        H  0.16697644  0.90897591  0.94748197     0.09300
H956        H  0.16860866  0.91392600  0.89165226     0.12900
H957        H  0.17229846  0.79249150  0.94349775     0.12800
H958        H  0.18295795  0.76814419  0.89331880     0.12600
H959        H  0.18669560  0.77455899  0.83713387     0.13100
H960        H  0.17285779  0.88598267  0.84160758     0.15100
C961        C  0.17265479  0.84871640  0.58407438    -0.05000
C962        C  0.20699728  0.88557090  0.59874759    -0.04900
C963        C  0.21221067  0.88824920  0.63091350    -0.23100
C964        C  0.18185776  0.85516103  0.64935501     0.19200
C965        C  0.14464397  0.82045556  0.63518658     0.16400
C966        C  0.13991132  0.81780548  0.60276067    -0.18100
C967        C  0.11235814  0.78952964  0.65376975    -0.19900
C968        C  0.11811921  0.79164124  0.68590110    -0.12500
C969        C  0.15728301  0.82314177  0.70026816     0.04200
C970        C  0.18758881  0.85671802  0.68171332    -0.24600
H971        H  0.22997559  0.91276446  0.58544339     0.09300
H972        H  0.23992710  0.91629447  0.64133908     0.12900
H973        H  0.11048602  0.79201148  0.59226300     0.12800
H974        H  0.08252567  0.76382312  0.64349835     0.12600
H975        H  0.09150001  0.76850215  0.69948339     0.13100
H976        H  0.21513024  0.88457180  0.69227506     0.15100
C977        C  0.34415438  0.66411998  0.80029617    -0.05000
C978        C  0.38220241  0.67020388  0.81527770    -0.04900
C979        C  0.38760428  0.67446326  0.84741809    -0.23100
C980        C  0.35594387  0.67477683  0.86532858     0.19200
C981        C  0.31998364  0.67364306  0.85051114     0.16400
C982        C  0.31495844  0.66955019  0.81814460    -0.18100
C983        C  0.29012967  0.67744695  0.86834041    -0.19900
C984        C  0.29428162  0.67917158  0.90061998    -0.12500
C985        C  0.32722238  0.67525403  0.91587792     0.04200
C986        C  0.35997862  0.67686613  0.89773489    -0.24600
H987        H  0.40835571  0.67233849  0.80219796     0.09300
H988        H  0.41656715  0.67749101  0.85824338     0.12900
H989        H  0.28871506  0.67142735  0.80701845     0.12800
H990        H  0.26343501  0.67885205  0.85735690     0.12600
H991        H  0.27169824  0.68384358  0.91353369     0.13100
H992        H  0.38889672  0.68009435  0.90863234     0.15100
C993        C  0.34440664  0.67795302  0.54999605    -0.05000
C994        C  0.38280155  0.71072481  0.56434921    -0.04900
C995        C  0.38859721  0.71287183  0.59649811    -0.23100
C996        C  0.35716374  0.68089797  0.61505358     0.19200
C997        C  0.32115601  0.64497327  0.60086336     0.16400
C998        C  0.31545834  0.64329818  0.56850497    -0.18100
C999        C  0.29186372  0.61103317  0.61930527    -0.19900
C1000       C  0.29666794  0.61410443  0.65150825    -0.12500
C1001       C  0.32939212  0.65205425  0.66612485     0.04200
C1002       C  0.36146616  0.68388756  0.64747669    -0.24600
H1003       H  0.40876249  0.73481280  0.55077962     0.09300
H1004       H  0.41768116  0.73955885  0.60681551     0.12900
H1005       H  0.28878100  0.61472016  0.55788963     0.12800
H1006       H  0.26517584  0.58215008  0.60885736     0.12600
H1007       H  0.27448457  0.58658009  0.66494192     0.13100
H1008       H  0.39006600  0.71073180  0.65797067     0.15100
C1009       C  0.83780464  0.17706893  0.01476529     0.30300
C1010       C  0.83004363  0.17429713  0.45121091     0.30300
C1011       C  0.85858934  0.15535900  0.99794196    -0.05900
C1012       C  0.79123009  0.15335856  0.00114114    -0.06700
C1013       C  0.85678559  0.22074752  0.99835180    -0.06600
C1014       C  0.85397089  0.15267893  0.46579869    -0.05900
C1015       C  0.78710480  0.15154271  0.46879890    -0.06700
C1016       C  0.85377457  0.21950974  0.46612340    -0.06600
C1017       C  0.87115212  0.12798964  0.45621575    -0.32000
N1018       N  0.88785364  0.11844265  0.98142278     0.14500
C1019       C  0.88026595  0.13478354  0.00694361    -0.32000
H1020       H  0.88879832  0.13077446  0.03042025     0.16500
C1021       C  0.74327736  0.12993733  0.46152711    -0.30900
N1022       N  0.72144967  0.12000165  0.48820140     0.13300
C1023       C  0.75008288  0.13433671  0.01241433    -0.30900
C1024       C  0.87367971  0.26175924  0.45606169    -0.31200
N1025       N  0.88711776  0.28784084  0.98139206     0.13800
H1026       H  0.87796760  0.27265177  0.43235247     0.16400
C1027       C  0.87631503  0.26331881  0.00710438    -0.31200
H1028       H  0.88271287  0.27608068  0.03044049     0.16400
H1029       H  0.74125515  0.13229612  0.03632397     0.16400
H1030       H  0.87119312  0.11717239  0.43297873     0.16500
H1031       H  0.72802159  0.12187734  0.43875425     0.16400
C1032       C  0.83238971  0.15587532  0.20140357     0.30300
C1033       C  0.83855595  0.15904256  0.26500761     0.30300
C1034       C  0.85550797  0.13409203  0.21663876    -0.05900
C1035       C  0.85641604  0.20144068  0.21618604    -0.06700
C1036       C  0.78911108  0.13504680  0.21844641    -0.06600
C1037       C  0.85777388  0.13493025  0.24889336    -0.05900
C1038       C  0.86007458  0.20237483  0.24840995    -0.06700
C1039       C  0.79233980  0.13626097  0.25077414    -0.06600
C1040       C  0.87783384  0.11258438  0.25781431    -0.32000
N1041       N  0.88965027  0.10028703  0.23219899     0.14500
C1042       C  0.87635170  0.11311764  0.20676984    -0.32000
H1043       H  0.88144970  0.10764152  0.18310889     0.16500
C1044       C  0.88071470  0.24457306  0.25782731    -0.30900
N1045       N  0.88865563  0.26948693  0.23251763     0.13300
C1046       C  0.87332443  0.24390670  0.20695941    -0.30900
C1047       C  0.75076730  0.11467727  0.26139430    -0.31200
N1048       N  0.72286996  0.10203624  0.23677542     0.13800
H1049       H  0.74103749  0.10731294  0.28513711     0.16400
C1050       C  0.74553443  0.11420349  0.21047013    -0.31200
H1051       H  0.73107901  0.10829175  0.18745476     0.16400
H1052       H  0.87382800  0.25553863  0.18377038     0.16400
H1053       H  0.88399371  0.10584409  0.28119835     0.16500
H1054       H  0.88808103  0.25637173  0.28145175     0.16400
C1055       C  0.66871813  0.34546025  0.04877428     0.30300
C1056       C  0.66194436  0.34417471  0.48523639     0.30300
C1057       C  0.64473878  0.36701200  0.03448530    -0.05900
C1058       C  0.71156502  0.36717965  0.03140158    -0.06700
C1059       C  0.64482484  0.30001534  0.03332363    -0.06600
C1060       C  0.64025909  0.36508035  0.50232449    -0.05900
C1061       C  0.70767115  0.36731939  0.49933019    -0.06700
C1062       C  0.64132582  0.29973616  0.50093155    -0.06600
C1063       C  0.61531023  0.38263751  0.49430610    -0.32000
N1064       N  0.60709099  0.39781129  0.02013414     0.14500
C1065       C  0.62489483  0.38873171  0.04501071    -0.32000
H1066       H  0.62336403  0.39707271  0.06872617     0.16500
C1067       C  0.74847149  0.38722785  0.48777543    -0.30900
N1068       N  0.77697214  0.39801875  0.51183900     0.13300
C1069       C  0.75514163  0.38515405  0.03850763    -0.30900
C1070       C  0.61856331  0.25730608  0.49144832    -0.31200
N1071       N  0.60921488  0.23186917  0.01665339     0.13800
H1072       H  0.60869676  0.24541639  0.46799945     0.16400
C1073       C  0.62504743  0.25716106  0.04234635    -0.31200
H1074       H  0.62255197  0.24499995  0.06558148     0.16400
H1075       H  0.77008742  0.38823343  0.06111503     0.16400
H1076       H  0.60416089  0.38502166  0.47130504     0.16500
H1077       H  0.75684644  0.39220458  0.46364533     0.16400
C1078       C  0.66307626  0.32403480  0.23555316     0.30300
C1079       C  0.66818626  0.32575725  0.29919286     0.30300
C1080       C  0.64294197  0.34684115  0.25172456    -0.05900
C1081       C  0.64204217  0.27998964  0.25159690    -0.06700
C1082       C  0.70890883  0.34606626  0.25019500    -0.06600
C1083       C  0.64429972  0.34722506  0.28399467    -0.05900
C1084       C  0.64397349  0.28045705  0.28387607    -0.06700
C1085       C  0.71155162  0.34771271  0.28251836    -0.06600
C1086       C  0.62081924  0.36610834  0.29290862    -0.32000
N1087       N  0.60826820  0.37893068  0.26711476     0.14500
C1088       C  0.62133419  0.36716849  0.24192899    -0.32000
H1089       H  0.61472968  0.37228726  0.21820254     0.16500
C1090       C  0.62405769  0.23772117  0.29315378    -0.30900
N1091       N  0.61157828  0.21245411  0.26747911     0.13300
C1092       C  0.62269534  0.23769614  0.24217972    -0.30900
C1093       C  0.75489346  0.36916405  0.29103663    -0.31200
N1094       N  0.77801592  0.37887443  0.26490495     0.13800
H1095       H  0.76854799  0.37691856  0.31431451     0.16400
C1096       C  0.75049030  0.36437237  0.24004733    -0.31200
H1097       H  0.76053382  0.36739958  0.21638379     0.16400
H1098       H  0.61800102  0.22576648  0.21867476     0.16400
H1099       H  0.61257049  0.36978725  0.31606014     0.16500
H1100       H  0.61889318  0.22562653  0.31653639     0.16400
O1101       O  0.94404717  0.02828467  0.01845323    -0.88100
C1102       C  0.93256955  0.44588729  0.44992726     0.88000
Mg1103     Mg  0.99302854  0.09527477  0.01896279     1.58100
O1104       O  0.97778699  0.43511468  0.02025127    -0.87800
O1105       O  0.92266351  0.47244531  0.04853160    -0.75100
C1106       C  0.67573151  0.09974225  0.49096760     0.93000
O1107       O  0.96456039  0.04910640  0.44626899    -0.74900
O1108       O  0.65749237  0.12144286  0.48478876    -0.82500
Mg1109     Mg  0.90678145  0.50322994  0.47554898     1.58000
C1110       C  0.58648009  0.42279626  0.01886548     0.92900
O1111       O  0.84287465  0.45653343  0.99835278    -0.80700
H1112       H  0.97277235  0.42264308  0.06550710    -0.06100
C1113       C  0.56505321  0.00710494  0.45527110     0.87900
O1114       O  0.53694749  0.08367813  0.05195267    -0.75200
O1115       O  0.92465683  0.45495140  0.47545717    -0.88000
O1116       O  0.54824122  0.40502883  0.00729273    -0.80800
C1117       C  0.91173083  0.33379733  0.48260957     0.93000
C1118       C  0.82249952  0.41826388  0.00881534     0.92900
Mg1119     Mg  0.59052036  0.01507522  0.02400885     1.58000
O1120       O  0.65509293  0.06131121  0.50123247    -0.80700
O1121       O  0.53224839  0.46990178  0.05291220    -0.75000
O1122       O  0.89315094  0.35377225  0.49149650    -0.80800
O1123       O  0.88733626  0.05394733  0.47598039    -0.82500
O1124       O  0.60427315  0.16606162  0.00673800    -0.80800
C1125       C  0.49332310  0.44118921  0.04681276     0.87300
O1126       O  0.57311573  0.06392540  0.02339326    -0.88000
O1127       O  0.55402624  0.49007330  0.48084921    -0.88100
O1128       O  0.57547428  0.04605227  0.45082571    -0.75100
Mg1129     Mg  0.91117391  0.41650373  0.01706384     1.58000
O1130       O  0.95226705  0.35270559  0.47884148    -0.82500
H1131       H  0.93422138  0.03076087  0.06342298    -0.06200
O1132       O  0.51971820  0.08372734  0.47841392    -0.87800
H1133       H  0.52383302  0.09627565  0.43315573    -0.06100
H1134       H  0.58328628  0.07234885  0.06909475    -0.06200
C1135       C  0.00368247  0.07767991  0.45200236     0.87300
C1136       C  0.93319846  0.51140780  0.04407909     0.87900
C1137       C  0.56575407  0.07371567  0.04882950     0.87900
H1138       H  0.56425741  0.48786688  0.43592342    -0.06200
O1139       O  0.96153542  0.43612519  0.44675761    -0.75200
Mg1140     Mg  0.58676687  0.10234851  0.48185618     1.58000
H1141       H  0.91544906  0.44783884  0.42961735    -0.06200
C1142       C  0.90898616  0.09402390  0.48239125     0.92900
O1143       O  0.54456770  0.16629566  0.01911788    -0.82500
C1144       C  0.58510639  0.18577097  0.01516177     0.93000
O1145       O  0.84082735  0.39675764  0.01496952    -0.82500
Mg1146     Mg  0.50450979  0.42336819  0.47996444     1.58200
O1147       O  0.94781910  0.11254247  0.49282787    -0.80800
O1148       O  0.60864917  0.46300477  0.02501889    -0.82500
O1149       O  0.51937095  0.43729777  0.22894659    -0.88100
C1150       C  0.93572078  0.42300227  0.29593796     0.88000
Mg1151     Mg  0.58663193  0.48580567  0.23106367     1.58100
O1152       O  0.92515904  0.47031224  0.22719810    -0.87800
O1153       O  0.96338426  0.41623921  0.19760250    -0.75100
C1154       C  0.59081555  0.16662496  0.26579967     0.93000
O1155       O  0.53904122  0.45547162  0.30230924    -0.74900
O1156       O  0.61281613  0.14862920  0.27169510    -0.82500
Mg1157     Mg  0.99370026  0.39904693  0.27027656     1.58000
C1158       C  0.91423125  0.07927430  0.23352652     0.92900
O1159       O  0.94780988  0.33618551  0.24478313    -0.80700
H1160       H  0.91401412  0.46755490  0.18153127    -0.06100
C1161       C  0.49769553  0.05502993  0.29657499     0.86300
O1162       O  0.57587194  0.03117046  0.19958334    -0.75200
O1163       O  0.94532341  0.41670843  0.27012960    -0.88000
O1164       O  0.89581731  0.04061984  0.24325100    -0.80800
C1165       C  0.82387628  0.40383237  0.26251168     0.93000
C1166       C  0.90914657  0.31527967  0.23409334     0.92900
Mg1167     Mg  0.50640359  0.08279633  0.22919758     1.58000
O1168       O  0.55213936  0.14588130  0.25501002    -0.80700
O1169       O  0.96148139  0.02602419  0.19734160    -0.75000
O1170       O  0.84342865  0.38568241  0.25186448    -0.80800
O1171       O  0.54414217  0.37936430  0.27053851    -0.82500
O1172       O  0.65734837  0.09601905  0.24855871    -0.80800
C1173       C  0.93219540  0.98707052  0.20137882     0.87300
O1174       O  0.55545560  0.06564891  0.22952502    -0.88000
O1175       O  0.98093990  0.04469785  0.27040193    -0.88100
O1176       O  0.53674896  0.06565022  0.30189414    -0.75100
Mg1177     Mg  0.90670058  0.40374435  0.22780620     1.58000
O1178       O  0.84309824  0.44409859  0.26825327    -0.82500
H1179       H  0.52203693  0.42874988  0.18365640    -0.06200
O1180       O  0.57501195  0.01128184  0.27257808    -0.87800
H1181       H  0.58662135  0.01387358  0.31817279    -0.06100
H1182       H  0.56504162  0.07840860  0.18446454    -0.06200
C1183       C  0.56824199  0.49445629  0.29834238     0.87300
C1184       C  0.00253921  0.42707592  0.20278247     0.87900
C1185       C  0.56588537  0.05976637  0.20390017     0.87900
H1186       H  0.97815599  0.05352183  0.31562041    -0.06200
O1187       O  0.92604465  0.45175856  0.30047915    -0.75200
Mg1188     Mg  0.59355308  0.07804128  0.27202731     1.58000
H1189       H  0.93725430  0.40470527  0.31535941    -0.06200
C1190       C  0.58433885  0.40057975  0.26546103     0.92900
O1191       O  0.65761764  0.03706752  0.23324838    -0.82500
C1192       C  0.67698059  0.07736340  0.23893236     0.93000
O1193       O  0.88710618  0.33315453  0.22807418    -0.82500
Mg1194     Mg  0.91392268  0.99588525  0.26886096     1.58200
O1195       O  0.60334067  0.43935395  0.25588102    -0.80800
O1196       O  0.95458171  0.10120669  0.22874554    -0.82500
C1197       C  0.66220713  0.34631483  0.44985262    -0.05000
C1198       C  0.66518744  0.38251663  0.43464923    -0.04900
C1199       C  0.66784030  0.38635186  0.40256369    -0.23100
C1200       C  0.67035990  0.35543779  0.38486480     0.19200
C1201       C  0.67228933  0.32150072  0.39983854     0.16400
C1202       C  0.66872666  0.31742021  0.43216368    -0.18100
C1203       C  0.67905483  0.29307928  0.38222183    -0.19900
C1204       C  0.68042212  0.29633989  0.34997733    -0.12500
C1205       C  0.67285030  0.32657681  0.33451128     0.04200
C1206       C  0.67182135  0.35842333  0.35250198    -0.24600
H1207       H  0.66697655  0.40897584  0.44748184     0.09300
H1208       H  0.66860869  0.41392572  0.39165234     0.12900
H1209       H  0.67229847  0.29249164  0.44349778     0.12800
H1210       H  0.68295797  0.26814415  0.39331881     0.12600
H1211       H  0.68669572  0.27455918  0.33713397     0.13100
H1212       H  0.67285800  0.38598259  0.34160755     0.15100
C1213       C  0.67265470  0.34871639  0.08407439    -0.05000
C1214       C  0.70699718  0.38557088  0.09874762    -0.04900
C1215       C  0.71221060  0.38824921  0.13091350    -0.23100
C1216       C  0.68185771  0.35516106  0.14935502     0.19200
C1217       C  0.64464389  0.32045559  0.13518661     0.16400
C1218       C  0.63991124  0.31780550  0.10276072    -0.18100
C1219       C  0.61235810  0.28952965  0.15376981    -0.19900
C1220       C  0.61811929  0.29164122  0.18590111    -0.12500
C1221       C  0.65728301  0.32314183  0.20026816     0.04200
C1222       C  0.68758875  0.35671803  0.18171328    -0.24600
H1223       H  0.72997561  0.41276458  0.08544333     0.09300
H1224       H  0.73992708  0.41629452  0.14133910     0.12900
H1225       H  0.61048581  0.29201137  0.09226303     0.12800
H1226       H  0.58252562  0.26382312  0.14349842     0.12600
H1227       H  0.59149998  0.26850196  0.19948349     0.13100
H1228       H  0.71513042  0.38457204  0.19227508     0.15100
C1229       C  0.84415435  0.16412000  0.30029617    -0.05000
C1230       C  0.88220237  0.17020390  0.31527771    -0.04900
C1231       C  0.88760422  0.17446327  0.34741807    -0.23100
C1232       C  0.85594390  0.17477685  0.36532860     0.19200
C1233       C  0.81998367  0.17364308  0.35051116     0.16400
C1234       C  0.81495845  0.16955021  0.31814463    -0.18100
C1235       C  0.79012972  0.17744692  0.36834045    -0.19900
C1236       C  0.79428162  0.17917140  0.40061999    -0.12500
C1237       C  0.82722243  0.17525399  0.41587792     0.04200
C1238       C  0.85997877  0.17686617  0.39773493    -0.24600
H1239       H  0.90835568  0.17233849  0.30219794     0.09300
H1240       H  0.91656740  0.17749105  0.35824345     0.12900
H1241       H  0.78871494  0.17142737  0.30701845     0.12800
H1242       H  0.76343503  0.17885209  0.35735691     0.12600
H1243       H  0.77169810  0.18384327  0.41353377     0.13100
H1244       H  0.88889653  0.18009437  0.40863223     0.15100
C1245       C  0.84440674  0.17795301  0.04999607    -0.05000
C1246       C  0.88280171  0.21072481  0.06434922    -0.04900
C1247       C  0.88859737  0.21287181  0.09649812    -0.23100
C1248       C  0.85716384  0.18089797  0.11505359     0.19200
C1249       C  0.82115603  0.14497331  0.10086338     0.16400
C1250       C  0.81545841  0.14329827  0.06850501    -0.18100
C1251       C  0.79186374  0.11103327  0.11930529    -0.19900
C1252       C  0.79666794  0.11410448  0.15150823    -0.12500
C1253       C  0.82939214  0.15205426  0.16612485     0.04200
C1254       C  0.86146620  0.18388759  0.14747669    -0.24600
H1255       H  0.90876254  0.23481280  0.05077965     0.09300
H1256       H  0.91768131  0.23955889  0.10681551     0.12900
H1257       H  0.78878083  0.11472009  0.05788960     0.12800
H1258       H  0.76517562  0.08215000  0.10885728     0.12600
H1259       H  0.77448445  0.08658006  0.16494196     0.13100
H1260       H  0.89006603  0.21073190  0.15797067     0.15100
C1261       C  0.83780455  0.17706893  0.51476524     0.30300
C1262       C  0.83004365  0.17429713  0.95121093     0.30300
C1263       C  0.85858928  0.15535901  0.49794193    -0.05900
C1264       C  0.79123002  0.15335856  0.50114108    -0.06700
C1265       C  0.85678553  0.22074751  0.49835177    -0.06600
C1266       C  0.85397087  0.15267890  0.96579873    -0.05900
C1267       C  0.78710486  0.15154275  0.96879896    -0.06700
C1268       C  0.85377456  0.21950974  0.96612342    -0.06600
C1269       C  0.87115199  0.12798954  0.95621572    -0.32000
N1270       N  0.88785370  0.11844271  0.48142281     0.14500
C1271       C  0.88026586  0.13478354  0.50694362    -0.32000
H1272       H  0.88879811  0.13077444  0.53042029     0.16500
C1273       C  0.74327746  0.12993746  0.96152715    -0.30900
N1274       N  0.72144971  0.12000168  0.98820142     0.13300
C1275       C  0.75008283  0.13433667  0.51241425    -0.30900
C1276       C  0.87367959  0.26175921  0.95606172    -0.31200
N1277       N  0.88711781  0.28784083  0.48139210     0.13800
H1278       H  0.87796750  0.27265181  0.93235226     0.16400
C1279       C  0.87631509  0.26331877  0.50710439    -0.31200
H1280       H  0.88271296  0.27608062  0.53044054     0.16400
H1281       H  0.74125507  0.13229609  0.53632408     0.16400
H1282       H  0.87119295  0.11717238  0.93297882     0.16500
H1283       H  0.72802172  0.12187749  0.93875429     0.16400
C1284       C  0.83238978  0.15587540  0.70140357     0.30300
C1285       C  0.83855604  0.15904269  0.76500760     0.30300
C1286       C  0.85550802  0.13409213  0.71663877    -0.05900
C1287       C  0.85641615  0.20144073  0.71618603    -0.06700
C1288       C  0.78911115  0.13504690  0.71844641    -0.06600
C1289       C  0.85777397  0.13493039  0.74889337    -0.05900
C1290       C  0.86007472  0.20237492  0.74840994    -0.06700
C1291       C  0.79233988  0.13626111  0.75077413    -0.06600
C1292       C  0.87783388  0.11258452  0.75781425    -0.32000
N1293       N  0.88965025  0.10028708  0.73219898     0.14500
C1294       C  0.87635159  0.11311763  0.70676983    -0.32000
H1295       H  0.88144938  0.10764134  0.68310883     0.16500
C1296       C  0.88071485  0.24457313  0.75782723    -0.30900
N1297       N  0.88865571  0.26948697  0.73251757     0.13300
C1298       C  0.87332450  0.24390669  0.70695936    -0.30900
C1299       C  0.75076738  0.11467733  0.76139425    -0.31200
N1300       N  0.72286999  0.10203616  0.73677540     0.13800
H1301       H  0.74103753  0.10731294  0.78513720     0.16400
C1302       C  0.74553450  0.11420354  0.71047009    -0.31200
H1303       H  0.73107912  0.10829187  0.68745478     0.16400
H1304       H  0.87382799  0.25553858  0.68377030     0.16400
H1305       H  0.88399378  0.10584407  0.78119857     0.16500
H1306       H  0.88808128  0.25637197  0.78145178     0.16400
C1307       C  0.66871819  0.34546030  0.54877428     0.30300
C1308       C  0.66194434  0.34417467  0.98523637     0.30300
C1309       C  0.64473880  0.36701202  0.53448533    -0.05900
C1310       C  0.71156507  0.36717971  0.53140159    -0.06700
C1311       C  0.64482487  0.30001536  0.53332362    -0.06600
C1312       C  0.64025899  0.36508025  0.00232446    -0.05900
C1313       C  0.70767113  0.36731943  0.99933019    -0.06700
C1314       C  0.64132581  0.29973614  0.00093156    -0.06600
C1315       C  0.61531013  0.38263743  0.99430608    -0.32000
N1316       N  0.60709092  0.39781124  0.52013417     0.14500
C1317       C  0.62489472  0.38873161  0.54501073    -0.32000
H1318       H  0.62336386  0.39707259  0.56872624     0.16500
C1319       C  0.74847152  0.38722797  0.98777544    -0.30900
N1320       N  0.77697214  0.39801874  0.01183901     0.13300
C1321       C  0.75514163  0.38515402  0.53850759    -0.30900
C1322       C  0.61856323  0.25730604  0.99144833    -0.31200
N1323       N  0.60921493  0.23186916  0.51665330     0.13800
H1324       H  0.60869675  0.24541639  0.96799972     0.16400
C1325       C  0.62504741  0.25716103  0.54234630    -0.31200
H1326       H  0.62255186  0.24499991  0.56558137     0.16400
H1327       H  0.77008756  0.38823341  0.56111514     0.16400
H1328       H  0.60416074  0.38502160  0.97130495     0.16500
H1329       H  0.75684649  0.39220471  0.96364536     0.16400
C1330       C  0.66307634  0.32403484  0.73555321     0.30300
C1331       C  0.66818631  0.32575731  0.79919291     0.30300
C1332       C  0.64294209  0.34684126  0.75172460    -0.05900
C1333       C  0.64204221  0.27998969  0.75159696    -0.06700
C1334       C  0.70890890  0.34606619  0.75019507    -0.06600
C1335       C  0.64429981  0.34722513  0.78399471    -0.05900
C1336       C  0.64397350  0.28045710  0.78387613    -0.06700
C1337       C  0.71155170  0.34771271  0.78251843    -0.06600
C1338       C  0.62081916  0.36610827  0.79290873    -0.32000
N1339       N  0.60826813  0.37893064  0.76711481     0.14500
C1340       C  0.62133414  0.36716846  0.74192910    -0.32000
H1341       H  0.61472940  0.37228716  0.71820246     0.16500
C1342       C  0.62405763  0.23772120  0.79315386    -0.30900
N1343       N  0.61157825  0.21245420  0.76747914     0.13300
C1344       C  0.62269531  0.23769622  0.74217982    -0.30900
C1345       C  0.75489358  0.36916413  0.79103670    -0.31200
N1346       N  0.77801600  0.37887443  0.76490497     0.13800
H1347       H  0.76854807  0.37691866  0.81431445     0.16400
C1348       C  0.75049034  0.36437226  0.74004741    -0.31200
H1349       H  0.76053385  0.36739946  0.71638369     0.16400
H1350       H  0.61800088  0.22576647  0.71867462     0.16400
H1351       H  0.61257040  0.36978700  0.81605997     0.16500
H1352       H  0.61889319  0.22562657  0.81653639     0.16400
O1353       O  0.94404724  0.02828464  0.51845318    -0.88100
C1354       C  0.93256952  0.44588741  0.94992732     0.88000
Mg1355     Mg  0.99302862  0.09527470  0.51896280     1.58100
O1356       O  0.97778687  0.43511457  0.52025137    -0.87800
O1357       O  0.92266336  0.47244532  0.54853149    -0.75100
C1358       C  0.67573156  0.09974229  0.99096762     0.93000
O1359       O  0.96456047  0.04910641  0.94626902    -0.74900
O1360       O  0.65749244  0.12144294  0.98478884    -0.82500
Mg1361     Mg  0.90678148  0.50322989  0.97554905     1.58000
C1362       C  0.58648005  0.42279622  0.51886545     0.92900
O1363       O  0.84287458  0.45653350  0.49835269    -0.80700
H1364       H  0.97277226  0.42264276  0.56550725    -0.06100
C1365       C  0.56505308  0.00710484  0.95527107     0.87900
O1366       O  0.53694745  0.08367826  0.55195274    -0.75200
O1367       O  0.92465692  0.45495150  0.97545727    -0.88000
O1368       O  0.54824119  0.40502884  0.50729266    -0.80800
C1369       C  0.91173092  0.33379735  0.98260956     0.93000
C1370       C  0.82249949  0.41826396  0.50881533     0.92900
Mg1371     Mg  0.59052042  0.01507526  0.52400893     1.58000
O1372       O  0.65509291  0.06131124  0.00123246    -0.80700
O1373       O  0.53224832  0.46990171  0.55291228    -0.75000
O1374       O  0.89315110  0.35377236  0.99149643    -0.80800
O1375       O  0.88733627  0.05394733  0.97598046    -0.82500
O1376       O  0.60427308  0.16606153  0.50673788    -0.80800
C1377       C  0.49332306  0.44118911  0.54681285     0.87300
O1378       O  0.57311577  0.06392550  0.52339337    -0.88000
O1379       O  0.55402615  0.49007327  0.98084917    -0.88100
O1380       O  0.57547415  0.04605223  0.95082578    -0.75100
Mg1381     Mg  0.91117380  0.41650370  0.51706382     1.58000
O1382       O  0.95226717  0.35270550  0.97884157    -0.82500
H1383       H  0.93422114  0.03076088  0.56342292    -0.06200
O1384       O  0.51971824  0.08372754  0.97841386    -0.87800
H1385       H  0.52383297  0.09627553  0.93315554    -0.06100
H1386       H  0.58328625  0.07234906  0.56909488    -0.06200
C1387       C  0.00368257  0.07767993  0.95200231     0.87300
C1388       C  0.93319844  0.51140785  0.54407903     0.87900
C1389       C  0.56575406  0.07371583  0.54882959     0.87900
H1390       H  0.56425743  0.48786711  0.93592340    -0.06200
O1391       O  0.96153526  0.43612512  0.94675757    -0.75200
Mg1392     Mg  0.58676689  0.10234861  0.98185621     1.58000
H1393       H  0.91544901  0.44783909  0.92961745    -0.06200
C1394       C  0.90898616  0.09402393  0.98239118     0.92900
O1395       O  0.54456771  0.16629562  0.51911790    -0.82500
C1396       C  0.58510636  0.18577091  0.51516169     0.93000
O1397       O  0.84082737  0.39675780  0.51496959    -0.82500
Mg1398     Mg  0.50450983  0.42336814  0.97996438     1.58200
O1399       O  0.94781912  0.11254262  0.99282776    -0.80800
O1400       O  0.60864911  0.46300473  0.52501895    -0.82500
O1401       O  0.51937100  0.43729770  0.72894647    -0.88100
C1402       C  0.93572063  0.42300215  0.79593794     0.88000
Mg1403     Mg  0.58663199  0.48580557  0.73106368     1.58100
O1404       O  0.92515899  0.47031224  0.72719808    -0.87800
O1405       O  0.96338429  0.41623905  0.69760235    -0.75100
C1406       C  0.59081562  0.16662504  0.76579970     0.93000
O1407       O  0.53904136  0.45547165  0.80230927    -0.74900
O1408       O  0.61281625  0.14862934  0.77169508    -0.82500
Mg1409     Mg  0.99370036  0.39904695  0.77027650     1.58000
C1410       C  0.91423129  0.07927443  0.73352652     0.92900
O1411       O  0.94781001  0.33618557  0.74478301    -0.80700
H1412       H  0.91401415  0.46755510  0.68153123    -0.06100
C1413       C  0.49769558  0.05502984  0.79657497     0.86300
O1414       O  0.57587205  0.03117043  0.69958335    -0.75200
O1415       O  0.94532336  0.41670834  0.77012959    -0.88000
O1416       O  0.89581743  0.04062001  0.74325108    -0.80800
C1417       C  0.82387636  0.40383242  0.76251164     0.93000
C1418       C  0.90914662  0.31527968  0.73409331     0.92900
Mg1419     Mg  0.50640366  0.08279632  0.72919763     1.58000
O1420       O  0.55213942  0.14588135  0.75501008    -0.80700
O1421       O  0.96148125  0.02602414  0.69734167    -0.75000
O1422       O  0.84342874  0.38568248  0.75186440    -0.80800
O1423       O  0.54414203  0.37936421  0.77053845    -0.82500
O1424       O  0.65734842  0.09601906  0.74855864    -0.80800
C1425       C  0.93219523  0.98707045  0.70137883     0.87300
O1426       O  0.55545564  0.06564888  0.72952499    -0.88000
O1427       O  0.98093989  0.04469768  0.77040187    -0.88100
O1428       O  0.53674899  0.06565010  0.80189419    -0.75100
Mg1429     Mg  0.90670063  0.40374431  0.72780614     1.58000
O1430       O  0.84309828  0.44409863  0.76825323    -0.82500
H1431       H  0.52203703  0.42874980  0.68365617    -0.06200
O1432       O  0.57501183  0.01128178  0.77257804    -0.87800
H1433       H  0.58662165  0.01387355  0.81817271    -0.06100
H1434       H  0.56504174  0.07840844  0.68446457    -0.06200
C1435       C  0.56824215  0.49445632  0.79834234     0.87300
C1436       C  0.00253924  0.42707580  0.70278238     0.87900
C1437       C  0.56588544  0.05976635  0.70390013     0.87900
H1438       H  0.97815583  0.05352180  0.81562018    -0.06200
O1439       O  0.92604447  0.45175845  0.80047908    -0.75200
Mg1440     Mg  0.59355309  0.07804126  0.77202730     1.58000
H1441       H  0.93725409  0.40470522  0.81535937    -0.06200
C1442       C  0.58433873  0.40057967  0.76546106     0.92900
O1443       O  0.65761765  0.03706745  0.73324846    -0.82500
C1444       C  0.67698065  0.07736337  0.73893234     0.93000
O1445       O  0.88710620  0.33315454  0.72807426    -0.82500
Mg1446     Mg  0.91392266  0.99588525  0.76886096     1.58200
O1447       O  0.60334053  0.43935384  0.75588098    -0.80800
O1448       O  0.95458177  0.10120688  0.72874560    -0.82500
C1449       C  0.66220720  0.34631487  0.94985261    -0.05000
C1450       C  0.66518752  0.38251662  0.93464920    -0.04900
C1451       C  0.66784035  0.38635196  0.90256372    -0.23100
C1452       C  0.67036004  0.35543793  0.88486480     0.19200
C1453       C  0.67228947  0.32150085  0.89983855     0.16400
C1454       C  0.66872664  0.31742025  0.93216363    -0.18100
C1455       C  0.67905484  0.29307940  0.88222181    -0.19900
C1456       C  0.68042209  0.29633992  0.84997737    -0.12500
C1457       C  0.67285038  0.32657692  0.83451130     0.04200
C1458       C  0.67182133  0.35842336  0.85250202    -0.24600
H1459       H  0.66697656  0.40897618  0.94748204     0.09300
H1460       H  0.66860859  0.41392572  0.89165234     0.12900
H1461       H  0.67229825  0.29249131  0.94349779     0.12800
H1462       H  0.68295794  0.26814393  0.89331896     0.12600
H1463       H  0.68669561  0.27455907  0.83713396     0.13100
H1464       H  0.67285782  0.38598270  0.84160753     0.15100
C1465       C  0.67265479  0.34871648  0.58407438    -0.05000
C1466       C  0.70699724  0.38557105  0.59874759    -0.04900
C1467       C  0.71221059  0.38824926  0.63091351    -0.23100
C1468       C  0.68185774  0.35516107  0.64935500     0.19200
C1469       C  0.64464397  0.32045558  0.63518657     0.16400
C1470       C  0.63991134  0.31780554  0.60276065    -0.18100
C1471       C  0.61235820  0.28952963  0.65376977    -0.19900
C1472       C  0.61811934  0.29164133  0.68590111    -0.12500
C1473       C  0.65728307  0.32314189  0.70026816     0.04200
C1474       C  0.68758881  0.35671817  0.68171331    -0.24600
H1475       H  0.72997547  0.41276455  0.58544346     0.09300
H1476       H  0.73992702  0.41629456  0.64133912     0.12900
H1477       H  0.61048602  0.29201151  0.59226295     0.12800
H1478       H  0.58252575  0.26382301  0.64349839     0.12600
H1479       H  0.59150003  0.26850215  0.69948350     0.13100
H1480       H  0.71513018  0.38457195  0.69227501     0.15100
C1481       C  0.84415443  0.16412008  0.80029617    -0.05000
C1482       C  0.88220244  0.17020384  0.81527769    -0.04900
C1483       C  0.88760425  0.17446315  0.84741809    -0.23100
C1484       C  0.85594389  0.17477680  0.86532858     0.19200
C1485       C  0.81998369  0.17364310  0.85051113     0.16400
C1486       C  0.81495850  0.16955020  0.81814462    -0.18100
C1487       C  0.79012972  0.17744689  0.86834044    -0.19900
C1488       C  0.79428165  0.17917146  0.90061997    -0.12500
C1489       C  0.82722240  0.17525395  0.91587792     0.04200
C1490       C  0.85997864  0.17686606  0.89773489    -0.24600
H1491       H  0.90835556  0.17233842  0.80219807     0.09300
H1492       H  0.91656706  0.17749082  0.85824337     0.12900
H1493       H  0.78871485  0.17142729  0.80701840     0.12800
H1494       H  0.76343485  0.17885194  0.85735686     0.12600
H1495       H  0.77169811  0.18384344  0.91353379     0.13100
H1496       H  0.88889672  0.18009426  0.90863233     0.15100
C1497       C  0.84440663  0.17795305  0.54999604    -0.05000
C1498       C  0.88280162  0.21072476  0.56434921    -0.04900
C1499       C  0.88859729  0.21287177  0.59649810    -0.23100
C1500       C  0.85716378  0.18089796  0.61505357     0.19200
C1501       C  0.82115599  0.14497333  0.60086336     0.16400
C1502       C  0.81545828  0.14329833  0.56850499    -0.18100
C1503       C  0.79186378  0.11103317  0.61930528    -0.19900
C1504       C  0.79666806  0.11410457  0.65150824    -0.12500
C1505       C  0.82939217  0.15205434  0.66612485     0.04200
C1506       C  0.86146628  0.18388765  0.64747669    -0.24600
H1507       H  0.90876263  0.23481274  0.55077961     0.09300
H1508       H  0.91768124  0.23955874  0.60681550     0.12900
H1509       H  0.78878074  0.11472017  0.55788958     0.12800
H1510       H  0.76517592  0.08215006  0.60885741     0.12600
H1511       H  0.77448453  0.08658003  0.66494207     0.13100
H1512       H  0.89006597  0.21073173  0.65797058     0.15100
C1513       C  0.83780459  0.67706892  0.01476530     0.30300
C1514       C  0.83004363  0.67429714  0.45121091     0.30300
C1515       C  0.85858935  0.65535905  0.99794196    -0.05900
C1516       C  0.79123004  0.65335851  0.00114114    -0.06700
C1517       C  0.85678553  0.72074751  0.99835181    -0.06600
C1518       C  0.85397087  0.65267892  0.46579869    -0.05900
C1519       C  0.78710481  0.65154276  0.46879891    -0.06700
C1520       C  0.85377463  0.71950978  0.46612339    -0.06600
C1521       C  0.87115212  0.62798966  0.45621575    -0.32000
N1522       N  0.88785366  0.61844270  0.98142278     0.14500
C1523       C  0.88026599  0.63478361  0.00694361    -0.32000
H1524       H  0.88879834  0.63077453  0.03042024     0.16500
C1525       C  0.74327737  0.62993741  0.46152712    -0.30900
N1526       N  0.72144967  0.62000166  0.48820140     0.13300
C1527       C  0.75008282  0.63433656  0.01241432    -0.30900
C1528       C  0.87367973  0.76175931  0.45606167    -0.31200
N1529       N  0.88711786  0.78784084  0.98139207     0.13800
H1530       H  0.87796757  0.77265185  0.43235252     0.16400
C1531       C  0.87631505  0.76331880  0.00710439    -0.31200
H1532       H  0.88271285  0.77608065  0.03044050     0.16400
H1533       H  0.74125505  0.63229589  0.03632396     0.16400
H1534       H  0.87119317  0.61717242  0.43297873     0.16500
H1535       H  0.72802159  0.62187742  0.43875426     0.16400
C1536       C  0.83238974  0.65587534  0.20140356     0.30300
C1537       C  0.83855597  0.65904259  0.26500760     0.30300
C1538       C  0.85550793  0.63409200  0.21663875    -0.05900
C1539       C  0.85641614  0.70144069  0.21618605    -0.06700
C1540       C  0.78911110  0.63504687  0.21844641    -0.06600
C1541       C  0.85777388  0.63493027  0.24889335    -0.05900
C1542       C  0.86007463  0.70237485  0.24840995    -0.06700
C1543       C  0.79233982  0.63626104  0.25077414    -0.06600
C1544       C  0.87783386  0.61258445  0.25781430    -0.32000
N1545       N  0.88965029  0.60028708  0.23219900     0.14500
C1546       C  0.87635162  0.61311756  0.20676983    -0.32000
H1547       H  0.88144954  0.60764136  0.18310892     0.16500
C1548       C  0.88071469  0.74457308  0.25782733    -0.30900
N1549       N  0.88865562  0.76948695  0.23251763     0.13300
C1550       C  0.87332445  0.74390670  0.20695941    -0.30900
C1551       C  0.75076731  0.61467735  0.26139430    -0.31200
N1552       N  0.72286997  0.60203634  0.23677542     0.13800
H1553       H  0.74103749  0.60731300  0.28513711     0.16400
C1554       C  0.74553444  0.61420359  0.21047013    -0.31200
H1555       H  0.73107903  0.60829182  0.18745476     0.16400
H1556       H  0.87382794  0.75553860  0.18377041     0.16400
H1557       H  0.88399369  0.60584411  0.28119838     0.16500
H1558       H  0.88808097  0.75637176  0.28145169     0.16400
C1559       C  0.66871810  0.84546024  0.04877429     0.30300
C1560       C  0.66194436  0.84417469  0.48523639     0.30300
C1561       C  0.64473874  0.86701196  0.03448530    -0.05900
C1562       C  0.71156501  0.86717965  0.03140159    -0.06700
C1563       C  0.64482481  0.80001530  0.03332365    -0.06600
C1564       C  0.64025905  0.86508028  0.50232450    -0.05900
C1565       C  0.70767114  0.86731940  0.49933019    -0.06700
C1566       C  0.64132581  0.79973616  0.50093154    -0.06600
C1567       C  0.61531017  0.88263741  0.49430610    -0.32000
N1568       N  0.60709106  0.89781137  0.02013413     0.14500
C1569       C  0.62489486  0.88873176  0.04501070    -0.32000
H1570       H  0.62336409  0.89707280  0.06872615     0.16500
C1571       C  0.74847149  0.88722791  0.48777543    -0.30900
N1572       N  0.77697213  0.89801872  0.51183900     0.13300
C1573       C  0.75514164  0.88515415  0.03850763    -0.30900
C1574       C  0.61856329  0.75730610  0.49144832    -0.31200
N1575       N  0.60921490  0.73186913  0.01665336     0.13800
H1576       H  0.60869669  0.74541635  0.46799945     0.16400
C1577       C  0.62504738  0.75716097  0.04234636    -0.31200
H1578       H  0.62255187  0.74499985  0.06558142     0.16400
H1579       H  0.77008745  0.88823361  0.06111503     0.16400
H1580       H  0.60416083  0.88502149  0.47130502     0.16500
H1581       H  0.75684644  0.89220471  0.46364533     0.16400
C1582       C  0.66307629  0.82403479  0.23555315     0.30300
C1583       C  0.66818624  0.82575726  0.29919286     0.30300
C1584       C  0.64294197  0.84684113  0.25172455    -0.05900
C1585       C  0.64204216  0.77998964  0.25159691    -0.06700
C1586       C  0.70890884  0.84606620  0.25019501    -0.06600
C1587       C  0.64429966  0.84722500  0.28399466    -0.05900
C1588       C  0.64397348  0.78045705  0.28387607    -0.06700
C1589       C  0.71155161  0.84771275  0.28251835    -0.06600
C1590       C  0.62081911  0.86610822  0.29290863    -0.32000
N1591       N  0.60826815  0.87893063  0.26711476     0.14500
C1592       C  0.62133413  0.86716843  0.24192900    -0.32000
H1593       H  0.61472958  0.87228719  0.21820252     0.16500
C1594       C  0.62405767  0.73772115  0.29315380    -0.30900
N1595       N  0.61157827  0.71245414  0.26747911     0.13300
C1596       C  0.62269531  0.73769613  0.24217971    -0.30900
C1597       C  0.75489346  0.86916409  0.29103664    -0.31200
N1598       N  0.77801591  0.87887431  0.26490496     0.13800
H1599       H  0.76854796  0.87691864  0.31431447     0.16400
C1600       C  0.75049031  0.86437215  0.24004732    -0.31200
H1601       H  0.76053377  0.86739929  0.21638385     0.16400
H1602       H  0.61800098  0.72576650  0.21867482     0.16400
H1603       H  0.61257034  0.86978707  0.31606009     0.16500
H1604       H  0.61889318  0.72562656  0.31653633     0.16400
O1605       O  0.94404715  0.52828459  0.01845322    -0.88100
C1606       C  0.93256960  0.94588738  0.44992726     0.88000
Mg1607     Mg  0.99302856  0.59527469  0.01896277     1.58100
O1608       O  0.97778697  0.93511473  0.02025125    -0.87800
O1609       O  0.92266348  0.97244534  0.04853157    -0.75100
C1610       C  0.67573148  0.59974221  0.49096760     0.93000
O1611       O  0.96456037  0.54910642  0.44626900    -0.74900
O1612       O  0.65749234  0.62144283  0.48478879    -0.82500
Mg1613     Mg  0.90678145  0.00322991  0.47554898     1.58000
C1614       C  0.58648009  0.92279629  0.01886547     0.92900
O1615       O  0.84287466  0.95653351  0.99835278    -0.80700
H1616       H  0.97277233  0.92264293  0.06550696    -0.06100
C1617       C  0.56505313  0.50710477  0.45527109     0.87900
O1618       O  0.53694749  0.58367818  0.05195267    -0.75200
O1619       O  0.92465684  0.95495144  0.47545718    -0.88000
O1620       O  0.54824119  0.90502879  0.00729276    -0.80800
C1621       C  0.91173084  0.83379738  0.48260957     0.93000
C1622       C  0.82249953  0.91826396  0.00881533     0.92900
Mg1623     Mg  0.59052034  0.51507518  0.02400885     1.58000
O1624       O  0.65509289  0.56131117  0.50123242    -0.80700
O1625       O  0.53224833  0.96990164  0.05291223    -0.75000
O1626       O  0.89315090  0.85377224  0.49149651    -0.80800
O1627       O  0.88733627  0.55394738  0.47598040    -0.82500
O1628       O  0.60427314  0.66606152  0.00673803    -0.80800
C1629       C  0.49332301  0.94118908  0.04681276     0.87300
O1630       O  0.57311573  0.56392539  0.02339328    -0.88000
O1631       O  0.55402628  0.99007342  0.48084919    -0.88100
O1632       O  0.57547418  0.54605213  0.45082571    -0.75100
Mg1633     Mg  0.91117390  0.91650378  0.01706383     1.58000
O1634       O  0.95226708  0.85270567  0.47884148    -0.82500
H1635       H  0.93422128  0.53076088  0.06342296    -0.06200
O1636       O  0.51971821  0.58372740  0.47841391    -0.87800
H1637       H  0.52383308  0.59627550  0.43315567    -0.06100
H1638       H  0.58328631  0.57234895  0.06909477    -0.06200
C1639       C  0.00368247  0.57767986  0.45200235     0.87300
C1640       C  0.93319853  0.01140786  0.04407910     0.87900
C1641       C  0.56575408  0.57371573  0.04882951     0.87900
H1642       H  0.56425753  0.98786697  0.43592332    -0.06200
O1643       O  0.96153549  0.93612530  0.44675761    -0.75200
Mg1644     Mg  0.58676685  0.60234850  0.48185618     1.58000
H1645       H  0.91544911  0.94783893  0.42961735    -0.06200
C1646       C  0.90898616  0.59402393  0.48239125     0.92900
O1647       O  0.54456771  0.66629560  0.01911785    -0.82500
C1648       C  0.58510638  0.68577089  0.01516174     0.93000
O1649       O  0.84082737  0.89675774  0.01496952    -0.82500
Mg1650     Mg  0.50450986  0.92336829  0.47996442     1.58200
O1651       O  0.94781911  0.61254252  0.49282787    -0.80800
O1652       O  0.60864913  0.96300481  0.02501886    -0.82500
O1653       O  0.51937093  0.93729772  0.22894657    -0.88100
C1654       C  0.93572079  0.92300227  0.29593796     0.88000
Mg1655     Mg  0.58663191  0.98580564  0.23106367     1.58100
O1656       O  0.92515909  0.97031229  0.22719808    -0.87800
O1657       O  0.96338420  0.91623905  0.19760250    -0.75100
C1658       C  0.59081553  0.66662496  0.26579966     0.93000
O1659       O  0.53904123  0.95547170  0.30230926    -0.74900
O1660       O  0.61281612  0.64862922  0.27169510    -0.82500
Mg1661     Mg  0.99370030  0.89904698  0.27027658     1.58000
C1662       C  0.91423128  0.57927436  0.23352653     0.92900
O1663       O  0.94780988  0.83618556  0.24478314    -0.80700
H1664       H  0.91401416  0.96755502  0.18153117    -0.06100
C1665       C  0.49769549  0.55502996  0.29657501     0.86300
O1666       O  0.57587199  0.53117053  0.19958331    -0.75200
O1667       O  0.94532350  0.91670851  0.27012960    -0.88000
O1668       O  0.89581734  0.54061990  0.24325101    -0.80800
C1669       C  0.82387628  0.90383234  0.26251167     0.93000
C1670       C  0.90914656  0.81527967  0.23409334     0.92900
Mg1671     Mg  0.50640351  0.58279622  0.22919759     1.58000
O1672       O  0.55213935  0.64588131  0.25501000    -0.80700
O1673       O  0.96148131  0.52602405  0.19734158    -0.75000
O1674       O  0.84342870  0.88568244  0.25186447    -0.80800
O1675       O  0.54414216  0.87936432  0.27053854    -0.82500
O1676       O  0.65734836  0.59601911  0.24855871    -0.80800
C1677       C  0.93219531  0.48707038  0.20137881     0.87300
O1678       O  0.55545547  0.56564875  0.22952504    -0.88000
O1679       O  0.98093986  0.54469774  0.27040194    -0.88100
O1680       O  0.53674896  0.56565028  0.30189414    -0.75100
Mg1681     Mg  0.90670062  0.90374430  0.22780621     1.58000
O1682       O  0.84309819  0.94409857  0.26825327    -0.82500
H1683       H  0.52203690  0.92875004  0.18365635    -0.06200
O1684       O  0.57501193  0.51128180  0.27257809    -0.87800
H1685       H  0.58662131  0.51387347  0.31817277    -0.06100
H1686       H  0.56504171  0.57840874  0.18446462    -0.06200
C1687       C  0.56824200  0.99445635  0.29834237     0.87300
C1688       C  0.00253919  0.92707591  0.20278245     0.87900
C1689       C  0.56588537  0.55976639  0.20390019     0.87900
H1690       H  0.97815601  0.55352203  0.31562038    -0.06200
O1691       O  0.92604455  0.95175849  0.30047915    -0.75200
Mg1692     Mg  0.59355304  0.57804124  0.27202730     1.58000
H1693       H  0.93725434  0.90470524  0.31535940    -0.06200
C1694       C  0.58433884  0.90057975  0.26546104     0.92900
O1695       O  0.65761767  0.53706760  0.23324838    -0.82500
C1696       C  0.67698061  0.57736348  0.23893236     0.93000
O1697       O  0.88710618  0.83315453  0.22807419    -0.82500
Mg1698     Mg  0.91392268  0.49588523  0.26886097     1.58200
O1699       O  0.60334065  0.93935393  0.25588098    -0.80800
O1700       O  0.95458173  0.60120674  0.22874553    -0.82500
C1701       C  0.66220717  0.84631486  0.44985262    -0.05000
C1702       C  0.66518764  0.88251673  0.43464925    -0.04900
C1703       C  0.66784038  0.88635195  0.40256371    -0.23100
C1704       C  0.67035993  0.85543786  0.38486480     0.19200
C1705       C  0.67228933  0.82150078  0.39983853     0.16400
C1706       C  0.66872657  0.81742016  0.43216366    -0.18100
C1707       C  0.67905486  0.79307936  0.38222182    -0.19900
C1708       C  0.68042215  0.79633999  0.34997733    -0.12500
C1709       C  0.67285032  0.82657689  0.33451128     0.04200
C1710       C  0.67182137  0.85842345  0.35250197    -0.24600
H1711       H  0.66697681  0.90897605  0.44748194     0.09300
H1712       H  0.66860871  0.91392576  0.39165237     0.12900
H1713       H  0.67229826  0.79249155  0.44349772     0.12800
H1714       H  0.68295799  0.76814423  0.39331878     0.12600
H1715       H  0.68669573  0.77455927  0.33713397     0.13100
H1716       H  0.67285801  0.88598255  0.34160761     0.15100
C1717       C  0.67265466  0.84871642  0.08407439    -0.05000
C1718       C  0.70699716  0.88557090  0.09874763    -0.04900
C1719       C  0.71221055  0.88824912  0.13091349    -0.23100
C1720       C  0.68185772  0.85516101  0.14935500     0.19200
C1721       C  0.64464388  0.82045554  0.13518660     0.16400
C1722       C  0.63991122  0.81780552  0.10276070    -0.18100
C1723       C  0.61235808  0.78952968  0.15376983    -0.19900
C1724       C  0.61811933  0.79164128  0.18590113    -0.12500
C1725       C  0.65728309  0.82314184  0.20026815     0.04200
C1726       C  0.68758877  0.85671805  0.18171326    -0.24600
H1727       H  0.72997557  0.91276461  0.08544338     0.09300
H1728       H  0.73992718  0.91629459  0.14133919     0.12900
H1729       H  0.61048574  0.79201140  0.09226299     0.12800
H1730       H  0.58252550  0.76382316  0.14349847     0.12600
H1731       H  0.59150005  0.76850212  0.19948354     0.13100
H1732       H  0.71513045  0.88457209  0.19227506     0.15100
C1733       C  0.84415436  0.66411998  0.30029617    -0.05000
C1734       C  0.88220238  0.67020376  0.31527771    -0.04900
C1735       C  0.88760412  0.67446305  0.34741809    -0.23100
C1736       C  0.85594382  0.67477669  0.36532860     0.19200
C1737       C  0.81998366  0.67364305  0.35051115     0.16400
C1738       C  0.81495844  0.66955013  0.31814463    -0.18100
C1739       C  0.79012975  0.67744699  0.36834044    -0.19900
C1740       C  0.79428162  0.67917144  0.40061999    -0.12500
C1741       C  0.82722236  0.67525390  0.41587792     0.04200
C1742       C  0.85997865  0.67686598  0.39773493    -0.24600
H1743       H  0.90835550  0.67233834  0.30219807     0.09300
H1744       H  0.91656730  0.67749078  0.35824350     0.12900
H1745       H  0.78871490  0.67142727  0.30701846     0.12800
H1746       H  0.76343505  0.67885214  0.35735691     0.12600
H1747       H  0.77169815  0.68384335  0.41353375     0.13100
H1748       H  0.88889644  0.68009422  0.40863223     0.15100
C1749       C  0.84440671  0.67795301  0.04999608    -0.05000
C1750       C  0.88280166  0.71072475  0.06434923    -0.04900
C1751       C  0.88859735  0.71287182  0.09649811    -0.23100
C1752       C  0.85716383  0.68089797  0.11505359     0.19200
C1753       C  0.82115606  0.64497330  0.10086338     0.16400
C1754       C  0.81545836  0.64329828  0.06850502    -0.18100
C1755       C  0.79186382  0.61103314  0.11930527    -0.19900
C1756       C  0.79666799  0.61410453  0.15150822    -0.12500
C1757       C  0.82939213  0.65205428  0.16612484     0.04200
C1758       C  0.86146620  0.68388763  0.14747668    -0.24600
H1759       H  0.90876269  0.73481289  0.05077955     0.09300
H1760       H  0.91768119  0.73955887  0.10681549     0.12900
H1761       H  0.78878083  0.61472012  0.05788962     0.12800
H1762       H  0.76517602  0.58215001  0.10885735     0.12600
H1763       H  0.77448434  0.58657995  0.16494205     0.13100
H1764       H  0.89006597  0.71073193  0.15797065     0.15100
C1765       C  0.83780460  0.67706894  0.51476524     0.30300
C1766       C  0.83004362  0.67429714  0.95121094     0.30300
C1767       C  0.85858933  0.65535906  0.49794192    -0.05900
C1768       C  0.79123005  0.65335857  0.50114109    -0.06700
C1769       C  0.85678563  0.72074756  0.49835177    -0.06600
C1770       C  0.85397090  0.65267897  0.96579873    -0.05900
C1771       C  0.78710482  0.65154271  0.96879896    -0.06700
C1772       C  0.85377451  0.71950973  0.96612343    -0.06600
C1773       C  0.87115203  0.62798962  0.95621572    -0.32000
N1774       N  0.88785373  0.61844275  0.48142282     0.14500
C1775       C  0.88026594  0.63478362  0.50694362    -0.32000
H1776       H  0.88879820  0.63077450  0.53042031     0.16500
C1777       C  0.74327742  0.62993747  0.96152714    -0.30900
N1778       N  0.72144965  0.62000160  0.98820141     0.13300
C1779       C  0.75008283  0.63433670  0.51241426    -0.30900
C1780       C  0.87367961  0.76175920  0.95606173    -0.31200
N1781       N  0.88711786  0.78784088  0.48139209     0.13800
H1782       H  0.87796745  0.77265176  0.93235228     0.16400
C1783       C  0.87631515  0.76331883  0.50710438    -0.31200
H1784       H  0.88271296  0.77608070  0.53044053     0.16400
H1785       H  0.74125507  0.63229614  0.53632404     0.16400
H1786       H  0.87119295  0.61717244  0.93297882     0.16500
H1787       H  0.72802168  0.62187762  0.93875427     0.16400
C1788       C  0.83238974  0.65587535  0.70140357     0.30300
C1789       C  0.83855600  0.65904258  0.76500760     0.30300
C1790       C  0.85550803  0.63409211  0.71663877    -0.05900
C1791       C  0.85641610  0.70144069  0.71618602    -0.06700
C1792       C  0.78911112  0.63504686  0.71844641    -0.06600
C1793       C  0.85777392  0.63493027  0.74889337    -0.05900
C1794       C  0.86007466  0.70237484  0.74840993    -0.06700
C1795       C  0.79233984  0.63626102  0.75077413    -0.06600
C1796       C  0.87783380  0.61258435  0.75781424    -0.32000
N1797       N  0.88965027  0.60028699  0.73219897     0.14500
C1798       C  0.87635166  0.61311766  0.70676983    -0.32000
H1799       H  0.88144951  0.60764144  0.68310883     0.16500
C1800       C  0.88071476  0.74457304  0.75782722    -0.30900
N1801       N  0.88865559  0.76948691  0.73251759     0.13300
C1802       C  0.87332447  0.74390668  0.70695936    -0.30900
C1803       C  0.75076734  0.61467724  0.76139426    -0.31200
N1804       N  0.72287000  0.60203618  0.73677540     0.13800
H1805       H  0.74103749  0.60731285  0.78513717     0.16400
C1806       C  0.74553447  0.61420346  0.71047009    -0.31200
H1807       H  0.73107908  0.60829169  0.68745478     0.16400
H1808       H  0.87382801  0.75553860  0.68377029     0.16400
H1809       H  0.88399370  0.60584389  0.78119853     0.16500
H1810       H  0.88808119  0.75637183  0.78145184     0.16400
C1811       C  0.66871819  0.84546026  0.54877428     0.30300
C1812       C  0.66194431  0.84417462  0.98523638     0.30300
C1813       C  0.64473884  0.86701203  0.53448534    -0.05900
C1814       C  0.71156507  0.86717964  0.53140159    -0.06700
C1815       C  0.64482485  0.80001535  0.53332362    -0.06600
C1816       C  0.64025899  0.86508024  0.00232446    -0.05900
C1817       C  0.70767111  0.86731932  0.99933019    -0.06700
C1818       C  0.64132579  0.79973610  0.00093159    -0.06600
C1819       C  0.61531017  0.88263749  0.99430608    -0.32000
N1820       N  0.60709099  0.89781127  0.52013414     0.14500
C1821       C  0.62489479  0.88873168  0.54501073    -0.32000
H1822       H  0.62336389  0.89707262  0.56872620     0.16500
C1823       C  0.74847149  0.88722785  0.98777544    -0.30900
N1824       N  0.77697214  0.89801880  0.01183900     0.13300
C1825       C  0.75514165  0.88515400  0.53850759    -0.30900
C1826       C  0.61856321  0.75730601  0.99144833    -0.31200
N1827       N  0.60921491  0.73186918  0.51665330     0.13800
H1828       H  0.60869677  0.74541643  0.96799971     0.16400
C1829       C  0.62504741  0.75716106  0.54234629    -0.31200
H1830       H  0.62255186  0.74499991  0.56558143     0.16400
H1831       H  0.77008763  0.88823347  0.56111514     0.16400
H1832       H  0.60416075  0.88502162  0.97130496     0.16500
H1833       H  0.75684643  0.89220456  0.96364533     0.16400
C1834       C  0.66307629  0.82403478  0.73555321     0.30300
C1835       C  0.66818631  0.82575732  0.79919292     0.30300
C1836       C  0.64294201  0.84684118  0.75172460    -0.05900
C1837       C  0.64204219  0.77998965  0.75159697    -0.06700
C1838       C  0.70890888  0.84606622  0.75019507    -0.06600
C1839       C  0.64429976  0.84722510  0.78399471    -0.05900
C1840       C  0.64397352  0.78045707  0.78387615    -0.06700
C1841       C  0.71155169  0.84771276  0.78251842    -0.06600
C1842       C  0.62081917  0.86610831  0.79290872    -0.32000
N1843       N  0.60826809  0.87893062  0.76711480     0.14500
C1844       C  0.62133413  0.86716846  0.74192908    -0.32000
H1845       H  0.61472953  0.87228727  0.71820250     0.16500
C1846       C  0.62405775  0.73772116  0.79315385    -0.30900
N1847       N  0.61157825  0.71245411  0.76747914     0.13300
C1848       C  0.62269526  0.73769618  0.74217983    -0.30900
C1849       C  0.75489358  0.86916421  0.79103670    -0.31200
N1850       N  0.77801599  0.87887447  0.76490496     0.13800
H1851       H  0.76854807  0.87691872  0.81431444     0.16400
C1852       C  0.75049032  0.86437232  0.74004742    -0.31200
H1853       H  0.76053385  0.86739949  0.71638365     0.16400
H1854       H  0.61800083  0.72576643  0.71867462     0.16400
H1855       H  0.61257048  0.86978711  0.81605996     0.16500
H1856       H  0.61889336  0.72562649  0.81653639     0.16400
O1857       O  0.94404723  0.52828469  0.51845319    -0.88100
C1858       C  0.93256944  0.94588732  0.94992733     0.88000
Mg1859     Mg  0.99302862  0.59527474  0.51896280     1.58100
O1860       O  0.97778693  0.93511466  0.52025136    -0.87800
O1861       O  0.92266335  0.97244531  0.54853151    -0.75100
C1862       C  0.67573151  0.59974223  0.99096762     0.93000
O1863       O  0.96456042  0.54910633  0.94626900    -0.74900
O1864       O  0.65749237  0.62144285  0.98478881    -0.82500
Mg1865     Mg  0.90678151  0.00322993  0.97554905     1.58000
C1866       C  0.58648007  0.92279624  0.51886543     0.92900
O1867       O  0.84287456  0.95653347  0.49835273    -0.80700
H1868       H  0.97277226  0.92264288  0.56550724    -0.06100
C1869       C  0.56505308  0.50710487  0.95527107     0.87900
O1870       O  0.53694735  0.58367811  0.55195274    -0.75200
O1871       O  0.92465693  0.95495153  0.97545727    -0.88000
O1872       O  0.54824123  0.90502885  0.50729264    -0.80800
C1873       C  0.91173095  0.83379736  0.98260957     0.93000
C1874       C  0.82249947  0.91826393  0.50881533     0.92900
Mg1875     Mg  0.59052039  0.51507523  0.52400892     1.58000
O1876       O  0.65509286  0.56131118  0.00123250    -0.80700
O1877       O  0.53224839  0.96990182  0.55291231    -0.75000
O1878       O  0.89315108  0.85377232  0.99149642    -0.80800
O1879       O  0.88733624  0.55394734  0.97598049    -0.82500
O1880       O  0.60427308  0.66606157  0.50673788    -0.80800
C1881       C  0.49332313  0.94118920  0.54681285     0.87300
O1882       O  0.57311567  0.56392539  0.52339335    -0.88000
O1883       O  0.55402617  0.99007331  0.98084919    -0.88100
O1884       O  0.57547413  0.54605224  0.95082580    -0.75100
Mg1885     Mg  0.91117379  0.91650373  0.51706381     1.58000
O1886       O  0.95226720  0.85270557  0.97884156    -0.82500
H1887       H  0.93422113  0.53076084  0.56342293    -0.06200
O1888       O  0.51971814  0.58372738  0.97841387    -0.87800
H1889       H  0.52383284  0.59627555  0.93315561    -0.06100
H1890       H  0.58328619  0.57234886  0.56909493    -0.06200
C1891       C  0.00368252  0.57767988  0.95200231     0.87300
C1892       C  0.93319843  0.01140783  0.54407902     0.87900
C1893       C  0.56575393  0.57371567  0.54882957     0.87900
H1894       H  0.56425739  0.98786709  0.93592349    -0.06200
O1895       O  0.96153527  0.93612517  0.94675756    -0.75200
Mg1896     Mg  0.58676682  0.60234850  0.98185622     1.58000
H1897       H  0.91544874  0.94783878  0.92961748    -0.06200
C1898       C  0.90898616  0.59402395  0.98239119     0.92900
O1899       O  0.54456771  0.66629567  0.51911791    -0.82500
C1900       C  0.58510638  0.68577097  0.51516169     0.93000
O1901       O  0.84082733  0.89675775  0.51496957    -0.82500
Mg1902     Mg  0.50450984  0.92336818  0.97996439     1.58200
O1903       O  0.94781912  0.61254259  0.99282775    -0.80800
O1904       O  0.60864910  0.96300472  0.52501897    -0.82500
O1905       O  0.51937103  0.93729774  0.72894650    -0.88100
C1906       C  0.93572064  0.92300224  0.79593792     0.88000
Mg1907     Mg  0.58663196  0.98580564  0.73106369     1.58100
O1908       O  0.92515892  0.97031221  0.72719807    -0.87800
O1909       O  0.96338432  0.91623916  0.69760235    -0.75100
C1910       C  0.59081564  0.66662499  0.76579969     0.93000
O1911       O  0.53904134  0.95547164  0.80230925    -0.74900
O1912       O  0.61281629  0.64862928  0.77169505    -0.82500
Mg1913     Mg  0.99370030  0.89904691  0.77027650     1.58000
C1914       C  0.91423125  0.57927428  0.73352651     0.92900
O1915       O  0.94780995  0.83618545  0.74478302    -0.80700
H1916       H  0.91401406  0.96755506  0.68153121    -0.06100
C1917       C  0.49769560  0.55502991  0.79657497     0.86300
O1918       O  0.57587209  0.53117041  0.69958338    -0.75200
O1919       O  0.94532337  0.91670840  0.77012959    -0.88000
O1920       O  0.89581736  0.54061984  0.74325106    -0.80800
C1921       C  0.82387636  0.90383245  0.76251165     0.93000
C1922       C  0.90914657  0.81527965  0.73409333     0.92900
Mg1923     Mg  0.50640366  0.58279633  0.72919762     1.58000
O1924       O  0.55213941  0.64588125  0.75501012    -0.80700
O1925       O  0.96148126  0.52602419  0.69734165    -0.75000
O1926       O  0.84342873  0.88568251  0.75186439    -0.80800
O1927       O  0.54414203  0.87936426  0.77053845    -0.82500
O1928       O  0.65734842  0.59601904  0.74855862    -0.80800
C1929       C  0.93219527  0.48707048  0.70137883     0.87300
O1930       O  0.55545570  0.56564893  0.72952496    -0.88000
O1931       O  0.98093989  0.54469773  0.77040188    -0.88100
O1932       O  0.53674902  0.56565019  0.80189419    -0.75100
Mg1933     Mg  0.90670063  0.90374436  0.72780613     1.58000
O1934       O  0.84309827  0.94409865  0.76825325    -0.82500
H1935       H  0.52203704  0.92874985  0.68365630    -0.06200
O1936       O  0.57501195  0.51128176  0.77257804    -0.87800
H1937       H  0.58662154  0.51387352  0.81817268    -0.06100
H1938       H  0.56504176  0.57840848  0.68446446    -0.06200
C1939       C  0.56824208  0.99445629  0.79834232     0.87300
C1940       C  0.00253927  0.92707590  0.70278239     0.87900
C1941       C  0.56588549  0.55976631  0.70390014     0.87900
H1942       H  0.97815584  0.55352184  0.81562020    -0.06200
O1943       O  0.92604449  0.95175853  0.80047908    -0.75200
Mg1944     Mg  0.59355313  0.57804126  0.77202729     1.58000
H1945       H  0.93725407  0.90470522  0.81535944    -0.06200
C1946       C  0.58433873  0.90057971  0.76546105     0.92900
O1947       O  0.65761774  0.53706744  0.73324848    -0.82500
C1948       C  0.67698066  0.57736335  0.73893233     0.93000
O1949       O  0.88710623  0.83315456  0.72807426    -0.82500
Mg1950     Mg  0.91392266  0.49588521  0.76886097     1.58200
O1951       O  0.60334057  0.93935389  0.75588100    -0.80800
O1952       O  0.95458175  0.60120668  0.72874561    -0.82500
C1953       C  0.66220717  0.84631482  0.94985261    -0.05000
C1954       C  0.66518748  0.88251662  0.93464923    -0.04900
C1955       C  0.66784028  0.88635188  0.90256374    -0.23100
C1956       C  0.67036004  0.85543796  0.88486480     0.19200
C1957       C  0.67228948  0.82150086  0.89983855     0.16400
C1958       C  0.66872666  0.81742025  0.93216362    -0.18100
C1959       C  0.67905477  0.79307934  0.88222181    -0.19900
C1960       C  0.68042207  0.79633998  0.84997738    -0.12500
C1961       C  0.67285040  0.82657696  0.83451130     0.04200
C1962       C  0.67182135  0.85842341  0.85250202    -0.24600
H1963       H  0.66697655  0.90897599  0.94748199     0.09300
H1964       H  0.66860848  0.91392585  0.89165229     0.12900
H1965       H  0.67229830  0.79249131  0.94349778     0.12800
H1966       H  0.68295777  0.76814399  0.89331887     0.12600
H1967       H  0.68669566  0.77455902  0.83713391     0.13100
H1968       H  0.67285784  0.88598276  0.84160754     0.15100
C1969       C  0.67265481  0.84871639  0.58407438    -0.05000
C1970       C  0.70699732  0.88557088  0.59874759    -0.04900
C1971       C  0.71221070  0.88824920  0.63091351    -0.23100
C1972       C  0.68185774  0.85516105  0.64935501     0.19200
C1973       C  0.64464394  0.82045559  0.63518658     0.16400
C1974       C  0.63991133  0.81780549  0.60276067    -0.18100
C1975       C  0.61235814  0.78952964  0.65376975    -0.19900
C1976       C  0.61811924  0.79164120  0.68590110    -0.12500
C1977       C  0.65728302  0.82314177  0.70026816     0.04200
C1978       C  0.68758873  0.85671804  0.68171331    -0.24600
H1979       H  0.72997562  0.91276445  0.58544339     0.09300
H1980       H  0.73992703  0.91629440  0.64133906     0.12900
H1981       H  0.61048602  0.79201146  0.59226299     0.12800
H1982       H  0.58252567  0.76382304  0.64349835     0.12600
H1983       H  0.59150005  0.76850211  0.69948338     0.13100
H1984       H  0.71513027  0.88457197  0.69227512     0.15100
C1985       C  0.84415442  0.66411999  0.80029617    -0.05000
C1986       C  0.88220245  0.67020389  0.81527771    -0.04900
C1987       C  0.88760431  0.67446326  0.84741810    -0.23100
C1988       C  0.85594392  0.67477691  0.86532858     0.19200
C1989       C  0.81998374  0.67364321  0.85051112     0.16400
C1990       C  0.81495854  0.66955025  0.81814460    -0.18100
C1991       C  0.79012976  0.67744700  0.86834043    -0.19900
C1992       C  0.79428168  0.67917157  0.90061997    -0.12500
C1993       C  0.82722241  0.67525403  0.91587792     0.04200
C1994       C  0.85997865  0.67686613  0.89773488    -0.24600
H1995       H  0.90835577  0.67233847  0.80219798     0.09300
H1996       H  0.91656710  0.67749096  0.85824339     0.12900
H1997       H  0.78871496  0.67142734  0.80701836     0.12800
H1998       H  0.76343489  0.67885204  0.85735684     0.12600
H1999       H  0.77169814  0.68384354  0.91353379     0.13100
H2000       H  0.88889670  0.68009430  0.90863232     0.15100
C2001       C  0.84440664  0.67795301  0.54999604    -0.05000
C2002       C  0.88280158  0.71072477  0.56434921    -0.04900
C2003       C  0.88859724  0.71287180  0.59649810    -0.23100
C2004       C  0.85716374  0.68089797  0.61505357     0.19200
C2005       C  0.82115594  0.64497332  0.60086337     0.16400
C2006       C  0.81545824  0.64329825  0.56850498    -0.18100
C2007       C  0.79186373  0.61103317  0.61930527    -0.19900
C2008       C  0.79666798  0.61410442  0.65150825    -0.12500
C2009       C  0.82939213  0.65205425  0.66612485     0.04200
C2010       C  0.86146620  0.68388754  0.64747669    -0.24600
H2011       H  0.90876253  0.73481275  0.55077962     0.09300
H2012       H  0.91768121  0.73955880  0.60681550     0.12900
H2013       H  0.78878088  0.61472025  0.55788966     0.12800
H2014       H  0.76517585  0.58215004  0.60885738     0.12600
H2015       H  0.77448464  0.58658008  0.66494193     0.13100
H2016       H  0.89006606  0.71073178  0.65797067     0.15100
loop_ 
_geom_bond_atom_site_label_1 
_geom_bond_atom_site_label_2 
_geom_bond_distance 
_geom_bond_site_symmetry_2 
_ccdc_geom_bond_type 
C1            C3   1.528   1_554  S
C1            C5   1.536   1_554  S
C1            C4   1.543       .  S
C1          C237   1.534       .  S
C2            C6   1.546       .  S
C2            C8   1.538       .  S
C2            C7   1.550       .  S
C2          C229   1.531       .  S
C3           C11   1.369   1_556  A
C3          C258   1.394       .  A
C4           C15   1.378       .  A
C4          C259   1.402   1_554  A
C5           C19   1.373   1_556  A
C5          C260   1.395       .  A
C6            C9   1.387       .  A
C6          C255   1.394       .  A
C7           C13   1.384       .  A
C7          C256   1.402       .  A
C8           C16   1.383       .  A
C8          C257   1.395       .  A
C9           H22   1.081       .  S
C9          N262   1.355       .  A
N10          C11   1.353   1_556  A
N10         C261   1.355       .  A
N10         C386   1.425       .  S
C11          H12   1.083       .  S
C13          H23   1.081       .  S
C13          N14   1.354       .  A
N14         C267   1.354       .  A
N14          C98   1.428       .  S
C15          H21   1.082       .  S
C15         N266   1.354   1_554  A
C16          H18   1.082       .  S
C16         N269   1.357       .  A
N17          C19   1.352   1_556  A
N17         C268   1.357       .  A
N17         C361   1.425       .  S
C19          H20   1.082       .  S
C24          C26   1.538       .  S
C24          C28   1.548       .  S
C24          C27   1.546       .  S
C24         C245   1.530       .  S
C25          C29   1.538       .  S
C25          C31   1.542       .  S
C25          C30   1.527       .  S
C25         C221   1.535       .  S
C26          C34   1.383       .  A
C26          C29   1.396       .  A
C27          C38   1.387       .  A
C27          C30   1.396       .  A
C28          C42   1.384       .  A
C28          C31   1.400       .  A
C29          C32   1.374       .  A
C30          C36   1.367       .  A
C31          C39   1.378       .  A
C32          H45   1.082       .  S
C32          N33   1.353       .  A
N33          C34   1.357       .  A
N33         C150   1.426       .  S
C34          H35   1.082       .  S
C36          H46   1.083       .  S
C36          N37   1.352       .  A
N37          C38   1.357       .  A
N37         C158   1.424       .  S
C38          H44   1.081       .  S
C39          H41   1.081       .  S
C39          N40   1.354       .  A
N40          C42   1.354       .  A
N40         C184   1.427       .  S
C42          H43   1.081       .  S
C47          C49   1.540       .  S
C47          C51   1.554       .  S
C47          C50   1.543       .  S
C47         C205   1.530       .  S
C48          C52   1.536       .  S
C48          C54   1.541       .  S
C48          C53   1.526       .  S
C48         C189   1.533       .  S
C49          C57   1.386       .  A
C49         C304   1.395       .  A
C50          C61   1.383       .  A
C50         C305   1.391   1_554  A
C51          C65   1.388       .  A
C51         C306   1.403       .  A
C52          C55   1.372       .  A
C52         C301   1.395       .  A
C53          C59   1.372       .  A
C53         C302   1.391       .  A
C54          C62   1.375       .  A
C54         C303   1.403       .  A
C55          H68   1.082       .  S
C55         N308   1.352       .  A
N56          C57   1.358       .  A
N56         C307   1.352   1_554  A
N56         C102   1.427       .  S
C57          H58   1.082       .  S
C59          H69   1.083       .  S
C59          N60   1.352       .  A
N60         C313   1.354       .  A
N60         C362   1.423       .  S
C61          H67   1.082       .  S
C61         N312   1.354       .  A
C62          H64   1.082       .  S
C62         N315   1.354       .  A
N63          C65   1.357       .  A
N63         C314   1.354   1_554  A
N63         C136   1.430       .  S
C65          H66   1.081       .  S
C70          C72   1.527       .  S
C70          C74   1.538       .  S
C70          C73   1.536       .  S
C70         C213   1.534       .  S
C71          C75   1.551       .  S
C71          C77   1.541       .  S
C71          C76   1.548       .  S
C71         C197   1.532       .  S
C72          C80   1.369       .  A
C72          C75   1.396       .  A
C73          C84   1.373       .  A
C73          C76   1.396       .  A
C74          C88   1.376       .  A
C74          C77   1.399       .  A
C75          C78   1.390       .  A
C76          C82   1.388       .  A
C77          C85   1.382       .  A
C78          H91   1.081       .  S
C78          N79   1.356       .  A
N79          C80   1.351       .  A
N79         C182   1.425       .  S
C80          H81   1.083       .  S
C82          H92   1.081       .  S
C82          N83   1.355       .  A
N83          C84   1.350       .  A
N83         C146   1.425       .  S
C84          H90   1.082       .  S
C85          H87   1.082       .  S
C85          N86   1.357       .  A
N86          C88   1.354       .  A
N86         C157   1.427       .  S
C88          H89   1.081       .  S
O93         Mg95   2.143       .  S
O93        Mg857   2.171   1_554  S
O93         C632   1.234       .  S
C94         H133   1.081       .  S
C94         O107   1.235       .  S
C94         O131   1.268       .  A
Mg95       O1384   2.164   1_554  S
Mg95        O391   2.286   1_554  S
Mg95       O1143   2.269       .  S
Mg95       O1114   2.290       .  S
O96        Mg121   2.135       .  S
O96       Mg1398   2.159   1_554  S
O96        C1125   1.235       .  S
O97         C128   1.268       .  A
O97        Mg121   2.290       .  S
C98         O100   1.273       .  A
C98         O112   1.275       .  A
O99         C127   1.269       .  A
O99        Mg605   2.296       .  S
O100       Mg132   2.272       .  S
Mg101       O107   2.138       .  S
Mg101       O849   2.171       .  S
Mg101       O603   2.296       .  S
Mg101       O619   2.264       .  S
Mg101       O355   2.291       .  S
C102        O140   1.273       .  A
C102        O108   1.274       .  A
O103        C110   1.273   1_556  A
O103       Mg353   2.291       .  S
H104       C1125   1.081       .  S
C105        H634   1.081   1_545  S
C105        O623   1.235   1_545  S
C105        O120   1.268       .  A
O106        C129   1.268       .  A
O106      Mg1103   2.290   1_455  S
O107       Mg373   2.172       .  S
O108       Mg390   2.291   1_554  S
C109        N269   1.425       .  S
C109        O122   1.271       .  A
C109        O114   1.273       .  A
C110        N312   1.423       .  S
C110        O137   1.269       .  A
Mg111       O118   2.146       .  S
Mg111       O875   2.170   1_544  S
Mg111       O364   2.302       .  S
Mg111       O617   2.290   1_545  S
Mg111       O644   2.277   1_545  S
O112       Mg363   2.302       .  S
O113        C117   1.268   1_455  A
O113       Mg615   2.290       .  S
O114       Mg373   2.292       .  S
O115        C134   1.271       .  A
O115       Mg605   2.264       .  S
O116        C136   1.276       .  A
O116       Mg384   2.312   1_554  S
C117       H1112   1.081       .  S
C117       O1104   1.235       .  S
O118       Mg384   2.169   1_554  S
O118        C129   1.234       .  S
O119       Mg138   2.141       .  S
O119       Mg867   2.170       .  S
O119        C609   1.235       .  S
O120       Mg132   2.291       .  S
Mg121       O359   2.172   1_554  S
Mg121       O137   2.252       .  S
Mg121       O366   2.292   1_554  S
O122      Mg1146   2.266       .  S
H123        C632   1.081       .  S
O124       Mg132   2.150       .  S
O124      Mg1355   2.164   1_455  S
O124       C1135   1.235       .  S
H125       C1135   1.081       .  S
H126        C129   1.081       .  S
C127       H1133   1.081       .  S
C127       O1132   1.235       .  S
C128        H627   1.081       .  S
C128        O597   1.234       .  S
H130        C609   1.081       .  S
O131      Mg1146   2.292       .  S
Mg132       O370   2.169       .  S
Mg132       O368   2.312       .  S
C134        N262   1.425       .  S
C134        O139   1.273       .  A
O135        C136   1.272       .  A
O135      Mg1103   2.269   1_455  S
Mg138      O1356   2.159   1_455  S
Mg138       O360   2.291       .  S
Mg138      O1130   2.266   1_455  S
Mg138      O1139   2.292   1_455  S
O139       Mg347   2.286       .  S
O140       Mg615   2.277       .  S
O141       Mg143   2.144       .  S
O141      Mg1157   2.169   1_455  S
O141       C1184   1.235       .  S
C142        H181   1.081       .  S
C142        O155   1.234       .  S
C142        O179   1.267       .  A
Mg143       O676   2.168       .  S
Mg143       O187   2.296       .  S
Mg143       O687   2.264       .  S
Mg143       O658   2.292       .  S
O144       Mg169   2.137       .  S
O144       Mg690   2.169       .  S
O144        C669   1.235       .  S
O145        C176   1.269       .  A
O145       Mg169   2.296       .  S
C146        O148   1.272       .  A
C146        O160   1.274       .  A
O147        C175   1.268       .  A
O147      Mg1157   2.292   1_455  S
O148       Mg180   2.268       .  S
Mg149       O155   2.135       .  S
Mg149      O1149   2.169       .  S
Mg149       O151   2.280       .  S
Mg149      O1155   2.292       .  S
Mg149      O1171   2.259       .  S
C150        O188   1.273       .  A
C150        O156   1.273       .  A
O151        C158   1.272       .  A
H152        C669   1.081       .  S
C153       H1186   1.081       .  S
C153       O1175   1.235       .  S
C153        O168   1.268   1_655  A
O154        C177   1.268       .  A
O154       Mg647   2.292   1_545  S
O155       Mg169   2.171       .  S
O156       Mg186   2.290   1_545  S
C157        O170   1.272       .  A
C157        O162   1.274       .  A
C158        O185   1.271       .  A
Mg159       O166   2.145       .  S
Mg159      O1175   2.162   1_455  S
Mg159       O160   2.290       .  S
Mg159      O1169   2.290   1_455  S
Mg159      O1196   2.274   1_455  S
O161        C165   1.268   1_545  A
O161      Mg1167   2.290       .  S
O162       Mg169   2.302       .  S
O163        C182   1.270       .  A
O163      Mg1157   2.259   1_455  S
O164        C184   1.275       .  A
O164       Mg180   2.307       .  S
C165        H656   1.081       .  S
C165        O648   1.235       .  S
O166       Mg180   2.170       .  S
O166        C177   1.234       .  S
O167       Mg186   2.141   1_545  S
O167      Mg1167   2.162       .  S
O167       C1161   1.235       .  S
O168       Mg180   2.292       .  S
Mg169       O185   2.265       .  S
O170       Mg690   2.264       .  S
H171       C1184   1.081       .  S
O172       Mg180   2.142       .  S
O172       Mg647   2.168   1_545  S
O172        C679   1.234   1_545  S
H173        C679   1.081   1_545  S
H174        C177   1.081       .  S
C175        H677   1.081       .  S
C175        O676   1.234       .  S
C176       H1179   1.081       .  S
C176       O1149   1.235       .  S
H178       C1161   1.081       .  S
O179       Mg690   2.286       .  S
C182        O187   1.274       .  A
O183        C184   1.272       .  A
O183       Mg647   2.264   1_545  S
Mg186       O648   2.169       .  S
Mg186       O674   2.264       .  S
Mg186       O683   2.286       .  S
O188      Mg1167   2.274       .  S
C189        C190   1.411       .  A
C189        C194   1.412       .  A
C190        C191   1.395       .  A
C190        H199   1.079       .  S
C191        C192   1.398       .  A
C191        H200   1.084       .  S
C192        C198   1.404       .  A
C192        C193   1.410       .  A
C193        C195   1.401       .  A
C193        C194   1.408       .  A
C194        H201   1.081       .  S
C195        C196   1.399       .  A
C195        H202   1.084       .  S
C196        C197   1.410       .  A
C196        H203   1.081       .  S
C197        C198   1.407       .  A
C198        H204   1.079       .  S
C205        C206   1.411       .  A
C205        C210   1.408       .  A
C206        C207   1.397       .  A
C206        H215   1.080       .  S
C207        C208   1.399       .  A
C207        H216   1.084       .  S
C208        C214   1.407       .  A
C208        C209   1.411       .  A
C209        C211   1.399       .  A
C209        C210   1.407       .  A
C210        H217   1.081       .  S
C211        C212   1.397       .  A
C211        H218   1.084       .  S
C212        C213   1.412       .  A
C212        H219   1.080       .  S
C213        C214   1.409       .  A
C214        H220   1.080       .  S
C221        C222   1.410       .  A
C221        C226   1.412       .  A
C222        C223   1.398       .  A
C222        H231   1.080       .  S
C223        C224   1.400       .  A
C223        H232   1.084       .  S
C224        C230   1.404       .  A
C224        C225   1.409       .  A
C225        C227   1.401       .  A
C225        C226   1.406       .  A
C226        H233   1.080       .  S
C227        C228   1.399       .  A
C227        H234   1.084       .  S
C228        C229   1.409       .  A
C228        H235   1.080       .  S
C229        C230   1.410       .  A
C230        H236   1.081       .  S
C237        C238   1.411       .  A
C237        C242   1.411       .  A
C238        C239   1.398       .  A
C238        H247   1.080       .  S
C239        C240   1.400       .  A
C239        H248   1.084       .  S
C240        C246   1.406       .  A
C240        C241   1.411       .  A
C241        C243   1.400       .  A
C241        C242   1.407       .  A
C242        H249   1.081       .  S
C243        C244   1.398       .  A
C243        H250   1.084       .  S
C244        C245   1.410       .  A
C244        H251   1.081       .  S
C245        C246   1.409       .  A
C246        H252   1.080       .  S
C253        C255   1.528       .  S
C253        C257   1.536       .  S
C253        C256   1.543       .  S
C253        C489   1.534       .  S
C254        C258   1.546       .  S
C254        C260   1.538       .  S
C254        C259   1.550       .  S
C254        C481   1.531       .  S
C255        C263   1.369       .  A
C256        C267   1.378       .  A
C257        C271   1.373       .  A
C258        C261   1.387       .  A
C259        C265   1.384       .  A
C260        C268   1.383       .  A
C261        H274   1.081       .  S
N262        C263   1.353       .  A
C263        H264   1.083       .  S
C265        H275   1.081       .  S
C265        N266   1.354       .  A
N266        C350   1.428       .  S
C267        H273   1.082       .  S
C268        H270   1.082       .  S
N269        C271   1.352       .  A
C271        H272   1.082       .  S
C276        C278   1.538       .  S
C276        C280   1.548       .  S
C276        C279   1.546       .  S
C276        C497   1.530       .  S
C277        C281   1.538       .  S
C277        C283   1.542       .  S
C277        C282   1.527       .  S
C277        C473   1.535       .  S
C278        C286   1.383       .  A
C278        C281   1.396       .  A
C279        C290   1.387       .  A
C279        C282   1.396       .  A
C280        C294   1.384       .  A
C280        C283   1.400       .  A
C281        C284   1.374       .  A
C282        C288   1.367       .  A
C283        C291   1.378       .  A
C284        H297   1.082       .  S
C284        N285   1.353       .  A
N285        C286   1.357       .  A
N285        C402   1.426       .  S
C286        H287   1.082       .  S
C288        H298   1.083       .  S
C288        N289   1.352       .  A
N289        C290   1.357       .  A
N289        C410   1.424       .  S
C290        H296   1.081       .  S
C291        H293   1.081       .  S
C291        N292   1.354       .  A
N292        C294   1.354       .  A
N292        C436   1.427       .  S
C294        H295   1.081       .  S
C299        C301   1.540       .  S
C299        C303   1.554       .  S
C299        C302   1.543       .  S
C299        C457   1.530       .  S
C300        C304   1.536   1_556  S
C300        C306   1.541   1_556  S
C300        C305   1.526       .  S
C300        C441   1.533       .  S
C301        C309   1.386       .  A
C302        C313   1.383       .  A
C303        C317   1.388       .  A
C304        C307   1.372   1_554  A
C305        C311   1.372       .  A
C306        C314   1.375   1_554  A
C307        H320   1.082       .  S
N308        C309   1.358       .  A
N308        C354   1.427       .  S
C309        H310   1.082       .  S
C311        H321   1.083       .  S
C311        N312   1.352   1_556  A
C313        H319   1.082       .  S
C314        H316   1.082       .  S
N315        C317   1.357       .  A
N315        C388   1.430       .  S
C317        H318   1.081       .  S
C322        C324   1.527       .  S
C322        C326   1.538       .  S
C322        C325   1.536       .  S
C322        C465   1.534       .  S
C323        C327   1.551       .  S
C323        C329   1.541       .  S
C323        C328   1.548       .  S
C323        C449   1.532       .  S
C324        C332   1.369       .  A
C324        C327   1.396       .  A
C325        C336   1.373       .  A
C325        C328   1.396       .  A
C326        C340   1.376       .  A
C326        C329   1.399       .  A
C327        C330   1.390       .  A
C328        C334   1.388       .  A
C329        C337   1.382       .  A
C330        H343   1.081       .  S
C330        N331   1.356       .  A
N331        C332   1.351       .  A
N331        C434   1.425       .  S
C332        H333   1.083       .  S
C334        H344   1.081       .  S
C334        N335   1.355       .  A
N335        C336   1.350       .  A
N335        C398   1.425       .  S
C336        H342   1.082       .  S
C337        H339   1.082       .  S
C337        N338   1.357       .  A
N338        C340   1.354       .  A
N338        C409   1.427       .  S
C340        H341   1.081       .  S
O345       Mg347   2.143       .  S
O345       Mg605   2.171       .  S
O345        C884   1.234       .  S
C346        H385   1.081       .  S
C346        O359   1.235       .  S
C346        O383   1.268       .  A
Mg347      O1132   2.164       .  S
Mg347      O1395   2.269       .  S
Mg347      O1366   2.290       .  S
O348      Mg1146   2.159       .  S
O348       Mg373   2.135       .  S
O348       C1377   1.235       .  S
O349        C380   1.268       .  A
O349       Mg373   2.290       .  S
C350        O352   1.273       .  A
C350        O364   1.275   1_556  A
O351        C379   1.269       .  A
O351       Mg857   2.296       .  S
O352       Mg384   2.272       .  S
Mg353       O597   2.171   1_556  S
Mg353       O359   2.138       .  S
Mg353       O855   2.296       .  S
Mg353       O871   2.264       .  S
C354        O392   1.273       .  A
C354        O360   1.274       .  A
O355        C362   1.273       .  A
H356       C1377   1.081       .  S
C357        H886   1.081   1_545  S
C357        O875   1.235   1_545  S
C357        O372   1.268       .  A
O358        C381   1.268       .  A
O358      Mg1355   2.290   1_455  S
C361        O374   1.271       .  A
C361        O366   1.273       .  A
C362        O389   1.269       .  A
Mg363       O370   2.146       .  S
Mg363       O623   2.170   1_545  S
Mg363       O869   2.290   1_545  S
Mg363       O896   2.277   1_545  S
O365        C369   1.268   1_455  A
O365       Mg867   2.290       .  S
O367        C386   1.271       .  A
O367       Mg857   2.264       .  S
O368        C388   1.276       .  A
C369       H1364   1.081       .  S
C369       O1356   1.235       .  S
O370        C381   1.234       .  S
O371       Mg615   2.170   1_556  S
O371       Mg390   2.141       .  S
O371        C861   1.235       .  S
O372       Mg384   2.291       .  S
Mg373       O389   2.252       .  S
O374      Mg1398   2.266       .  S
H375        C884   1.081       .  S
O376      Mg1103   2.164   1_456  S
O376       Mg384   2.150       .  S
O376       C1387   1.235       .  S
H377       C1387   1.081       .  S
H378        C381   1.081       .  S
C379       H1385   1.081       .  S
C379       O1384   1.235       .  S
C380        H879   1.081       .  S
C380        O849   1.234       .  S
H382        C861   1.081       .  S
O383      Mg1398   2.292       .  S
C386        O391   1.273       .  A
O387        C388   1.272       .  A
O387      Mg1355   2.269   1_455  S
Mg390      O1104   2.159   1_456  S
Mg390      O1382   2.266   1_455  S
Mg390      O1391   2.292   1_455  S
O392       Mg867   2.277       .  S
O393       Mg395   2.144       .  S
O393      Mg1409   2.169   1_455  S
O393       C1436   1.235       .  S
C394        H433   1.081       .  S
C394        O407   1.234       .  S
C394        O431   1.267       .  A
Mg395       O928   2.168       .  S
Mg395       O439   2.296       .  S
Mg395       O939   2.264       .  S
Mg395       O910   2.292       .  S
O396       Mg942   2.169       .  S
O396       Mg421   2.137       .  S
O396        C921   1.235       .  S
O397        C428   1.269       .  A
O397       Mg421   2.296       .  S
C398        O400   1.272       .  A
C398        O412   1.274       .  A
O399        C427   1.268       .  A
O399      Mg1409   2.292   1_455  S
O400       Mg432   2.268       .  S
Mg401      O1401   2.169       .  S
Mg401       O407   2.135       .  S
Mg401      O1407   2.292       .  S
Mg401      O1423   2.259       .  S
Mg401       O403   2.280       .  S
C402        O440   1.273       .  A
C402        O408   1.273       .  A
O403        C410   1.272       .  A
H404        C921   1.081       .  S
C405       H1438   1.081       .  S
C405       O1427   1.235       .  S
C405        O420   1.268   1_655  A
O406        C429   1.268       .  A
O406       Mg899   2.292   1_545  S
O407       Mg421   2.171       .  S
O408       Mg438   2.290   1_545  S
C409        O422   1.272       .  A
C409        O414   1.274       .  A
C410        O437   1.271       .  A
Mg411       O418   2.145       .  S
Mg411      O1427   2.162   1_455  S
Mg411       O412   2.290       .  S
Mg411      O1421   2.290   1_455  S
Mg411      O1448   2.274   1_455  S
O413        C417   1.268   1_545  A
O413      Mg1419   2.290       .  S
O414       Mg421   2.302       .  S
O415        C434   1.270       .  A
O415      Mg1409   2.259   1_455  S
O416        C436   1.275       .  A
O416       Mg432   2.307       .  S
C417        H908   1.081       .  S
C417        O900   1.235       .  S
O418       Mg432   2.170       .  S
O418        C429   1.234       .  S
O419      Mg1419   2.162       .  S
O419       Mg438   2.141   1_545  S
O419       C1413   1.235       .  S
O420       Mg432   2.292       .  S
Mg421       O437   2.265       .  S
O422       Mg942   2.264       .  S
H423       C1436   1.081       .  S
O424       Mg899   2.168   1_545  S
O424       Mg432   2.142       .  S
O424        C931   1.234   1_545  S
H425        C931   1.081   1_545  S
H426        C429   1.081       .  S
C427        H929   1.081       .  S
C427        O928   1.234       .  S
C428       H1431   1.081       .  S
C428       O1401   1.235       .  S
H430       C1413   1.081       .  S
O431       Mg942   2.286       .  S
C434        O439   1.274       .  A
O435        C436   1.272       .  A
O435       Mg899   2.264   1_545  S
Mg438       O900   2.169       .  S
Mg438       O926   2.264       .  S
Mg438       O935   2.286       .  S
O440      Mg1419   2.274       .  S
C441        C442   1.411       .  A
C441        C446   1.412       .  A
C442        C443   1.395       .  A
C442        H451   1.079       .  S
C443        C444   1.398       .  A
C443        H452   1.084       .  S
C444        C450   1.404       .  A
C444        C445   1.410       .  A
C445        C447   1.401       .  A
C445        C446   1.408       .  A
C446        H453   1.081       .  S
C447        C448   1.399       .  A
C447        H454   1.084       .  S
C448        C449   1.410       .  A
C448        H455   1.081       .  S
C449        C450   1.407       .  A
C450        H456   1.079       .  S
C457        C458   1.411       .  A
C457        C462   1.408       .  A
C458        C459   1.397       .  A
C458        H467   1.080       .  S
C459        C460   1.399       .  A
C459        H468   1.084       .  S
C460        C466   1.407       .  A
C460        C461   1.411       .  A
C461        C463   1.399       .  A
C461        C462   1.407       .  A
C462        H469   1.081       .  S
C463        C464   1.397       .  A
C463        H470   1.084       .  S
C464        C465   1.412       .  A
C464        H471   1.080       .  S
C465        C466   1.409       .  A
C466        H472   1.080       .  S
C473        C474   1.410       .  A
C473        C478   1.412       .  A
C474        C475   1.398       .  A
C474        H483   1.080       .  S
C475        C476   1.400       .  A
C475        H484   1.084       .  S
C476        C482   1.404       .  A
C476        C477   1.409       .  A
C477        C479   1.401       .  A
C477        C478   1.406       .  A
C478        H485   1.080       .  S
C479        C480   1.399       .  A
C479        H486   1.084       .  S
C480        C481   1.409       .  A
C480        H487   1.080       .  S
C481        C482   1.410       .  A
C482        H488   1.081       .  S
C489        C490   1.411       .  A
C489        C494   1.411       .  A
C490        C491   1.398       .  A
C490        H499   1.080       .  S
C491        C492   1.400       .  A
C491        H500   1.084       .  S
C492        C498   1.406       .  A
C492        C493   1.411       .  A
C493        C495   1.400       .  A
C493        C494   1.407       .  A
C494        H501   1.081       .  S
C495        C496   1.398       .  A
C495        H502   1.084       .  S
C496        C497   1.410       .  A
C496        H503   1.081       .  S
C497        C498   1.409       .  A
C498        H504   1.080       .  S
C505        C507   1.528   1_554  S
C505        C509   1.536   1_554  S
C505        C508   1.543       .  S
C505        C741   1.534       .  S
C506        C510   1.546       .  S
C506        C512   1.538       .  S
C506        C511   1.550       .  S
C506        C733   1.531       .  S
C507        C515   1.369   1_556  A
C507        C762   1.394       .  A
C508        C519   1.378       .  A
C508        C763   1.402   1_554  A
C509        C523   1.373   1_556  A
C509        C764   1.395       .  A
C510        C759   1.394       .  A
C510        C513   1.387       .  A
C511        C760   1.402       .  A
C511        C517   1.384       .  A
C512        C761   1.395       .  A
C512        C520   1.383       .  A
C513        H526   1.081       .  S
C513        N766   1.355       .  A
N514        C765   1.355       .  A
N514        C515   1.353   1_556  A
N514        C890   1.425       .  S
C515        H516   1.083       .  S
C517        H527   1.081       .  S
C517        N518   1.354       .  A
N518        C771   1.354       .  A
N518        C602   1.428       .  S
C519        H525   1.082       .  S
C519        N770   1.354   1_554  A
C520        H522   1.082       .  S
C520        N773   1.357       .  A
N521        C772   1.357       .  A
N521        C523   1.352   1_556  A
N521        C865   1.425       .  S
C523        H524   1.082       .  S
C528        C530   1.538       .  S
C528        C532   1.548       .  S
C528        C531   1.546       .  S
C528        C749   1.530       .  S
C529        C533   1.538       .  S
C529        C535   1.542       .  S
C529        C534   1.527       .  S
C529        C725   1.535       .  S
C530        C538   1.383       .  A
C530        C533   1.396       .  A
C531        C542   1.387       .  A
C531        C534   1.396       .  A
C532        C546   1.384       .  A
C532        C535   1.400       .  A
C533        C536   1.374       .  A
C534        C540   1.367       .  A
C535        C543   1.378       .  A
C536        H549   1.082       .  S
C536        N537   1.353       .  A
N537        C538   1.357       .  A
N537        C654   1.426       .  S
C538        H539   1.082       .  S
C540        H550   1.083       .  S
C540        N541   1.352       .  A
N541        C542   1.357       .  A
N541        C662   1.424       .  S
C542        H548   1.081       .  S
C543        H545   1.081       .  S
C543        N544   1.354       .  A
N544        C546   1.354       .  A
N544        C688   1.427       .  S
C546        H547   1.081       .  S
C551        C553   1.540       .  S
C551        C555   1.554       .  S
C551        C554   1.543       .  S
C551        C709   1.530       .  S
C552        C556   1.536       .  S
C552        C558   1.541       .  S
C552        C557   1.526       .  S
C552        C693   1.533       .  S
C553        C561   1.386       .  A
C553        C808   1.395       .  A
C554        C565   1.383       .  A
C554        C809   1.391   1_554  A
C555        C569   1.388       .  A
C555        C810   1.403       .  A
C556        C805   1.395       .  A
C556        C559   1.372       .  A
C557        C806   1.391       .  A
C557        C563   1.372       .  A
C558        C807   1.403       .  A
C558        C566   1.375       .  A
C559        H572   1.082       .  S
C559        N812   1.352       .  A
N560        C811   1.352   1_554  A
N560        C561   1.358       .  A
N560        C606   1.427       .  S
C561        H562   1.082       .  S
C563        H573   1.083       .  S
C563        N564   1.352       .  A
N564        C817   1.354       .  A
N564        C866   1.423       .  S
C565        H571   1.082       .  S
C565        N816   1.354       .  A
C566        H568   1.082       .  S
C566        N819   1.354       .  A
N567        C818   1.354   1_554  A
N567        C569   1.357       .  A
N567        C640   1.430       .  S
C569        H570   1.081       .  S
C574        C576   1.527       .  S
C574        C578   1.538       .  S
C574        C577   1.536       .  S
C574        C717   1.534       .  S
C575        C579   1.551       .  S
C575        C581   1.541       .  S
C575        C580   1.548       .  S
C575        C701   1.532       .  S
C576        C584   1.369       .  A
C576        C579   1.396       .  A
C577        C588   1.373       .  A
C577        C580   1.396       .  A
C578        C592   1.376       .  A
C578        C581   1.399       .  A
C579        C582   1.390       .  A
C580        C586   1.388       .  A
C581        C589   1.382       .  A
C582        H595   1.081       .  S
C582        N583   1.356       .  A
N583        C584   1.351       .  A
N583        C686   1.425       .  S
C584        H585   1.083       .  S
C586        H596   1.081       .  S
C586        N587   1.355       .  A
N587        C588   1.350       .  A
N587        C650   1.425       .  S
C588        H594   1.082       .  S
C589        H591   1.082       .  S
C589        N590   1.357       .  A
N590        C592   1.354       .  A
N590        C661   1.427       .  S
C592        H593   1.081       .  S
O597       Mg599   2.143       .  S
C598        H637   1.081       .  S
C598        O611   1.235       .  S
C598        O635   1.268       .  A
Mg599      O1888   2.164   1_554  S
Mg599       O895   2.286   1_554  S
Mg599      O1647   2.269       .  S
Mg599      O1618   2.290       .  S
O600      Mg1902   2.159   1_554  S
O600       Mg625   2.135       .  S
O600       C1629   1.235       .  S
O601        C632   1.268   1_565  A
O601       Mg625   2.290       .  S
C602        O604   1.273       .  A
C602        O616   1.275       .  A
O603        C631   1.269       .  A
O604       Mg636   2.272       .  S
Mg605       O611   2.138   1_545  S
Mg605       O859   2.291   1_545  S
C606        O644   1.273       .  A
C606        O612   1.274       .  A
O607        C614   1.273   1_556  A
O607       Mg857   2.291   1_565  S
H608       C1629   1.081       .  S
C609        O624   1.268       .  A
O610        C633   1.268       .  A
O610      Mg1607   2.290   1_455  S
O611       Mg877   2.172       .  S
O612       Mg894   2.291   1_554  S
C613        N773   1.425       .  S
C613        O626   1.271       .  A
C613        O618   1.273       .  A
C614        N816   1.423       .  S
C614        O641   1.269       .  A
Mg615       O622   2.146       .  S
Mg615       O868   2.302       .  S
O616       Mg867   2.302       .  S
O617        C621   1.268   1_455  A
O618       Mg877   2.292       .  S
O619        C638   1.271       .  A
O620        C640   1.276       .  A
O620       Mg888   2.312   1_554  S
C621       H1616   1.081       .  S
C621       O1608   1.235       .  S
O622       Mg888   2.169   1_554  S
O622        C633   1.234       .  S
O623       Mg642   2.141       .  S
O624       Mg636   2.291       .  S
Mg625       O863   2.172   1_554  S
Mg625       O870   2.292   1_554  S
Mg625       O641   2.252       .  S
O626      Mg1650   2.266       .  S
O628      Mg1859   2.164   1_455  S
O628       Mg636   2.150       .  S
O628       C1639   1.235       .  S
H629       C1639   1.081       .  S
H630        C633   1.081       .  S
C631       H1637   1.081       .  S
C631       O1636   1.235       .  S
O635      Mg1650   2.292       .  S
Mg636       O874   2.169       .  S
Mg636       O872   2.312       .  S
C638        N766   1.425       .  S
C638        O643   1.273       .  A
O639        C640   1.272       .  A
O639      Mg1607   2.269   1_455  S
Mg642      O1860   2.159   1_455  S
Mg642       O864   2.291       .  S
Mg642      O1634   2.266   1_455  S
Mg642      O1643   2.292   1_455  S
O643       Mg851   2.286       .  S
O645       Mg647   2.144       .  S
O645      Mg1661   2.169   1_455  S
O645       C1688   1.235       .  S
C646        H685   1.081       .  S
C646        O659   1.234       .  S
C646        O683   1.267       .  A
Mg647       O691   2.296       .  S
O648       Mg673   2.137       .  S
O649        C680   1.269       .  A
O649       Mg673   2.296       .  S
C650        O652   1.272       .  A
C650        O664   1.274       .  A
O651        C679   1.268       .  A
O651      Mg1661   2.292   1_455  S
O652       Mg684   2.268       .  S
Mg653      O1653   2.169       .  S
Mg653       O659   2.135       .  S
Mg653      O1659   2.292       .  S
Mg653      O1675   2.259       .  S
Mg653       O655   2.280       .  S
C654        O692   1.273       .  A
C654        O660   1.273       .  A
O655        C662   1.272       .  A
C657       H1690   1.081       .  S
C657       O1679   1.235       .  S
C657        O672   1.268   1_655  A
O658        C681   1.268       .  A
O659       Mg673   2.171       .  S
O660       Mg690   2.290       .  S
C661        O674   1.272       .  A
C661        O666   1.274       .  A
C662        O689   1.271       .  A
Mg663       O670   2.145       .  S
Mg663      O1679   2.162   1_455  S
Mg663       O664   2.290       .  S
Mg663      O1673   2.290   1_455  S
Mg663      O1700   2.274   1_455  S
O665        C669   1.268       .  A
O665      Mg1671   2.290       .  S
O666       Mg673   2.302       .  S
O667        C686   1.270       .  A
O667      Mg1661   2.259   1_455  S
O668        C688   1.275       .  A
O668       Mg684   2.307       .  S
O670       Mg684   2.170       .  S
O670        C681   1.234       .  S
O671      Mg1671   2.162       .  S
O671       Mg690   2.141       .  S
O671       C1665   1.235       .  S
O672       Mg684   2.292       .  S
Mg673       O689   2.265       .  S
H675       C1688   1.081       .  S
O676       Mg684   2.142       .  S
H678        C681   1.081       .  S
C680       H1683   1.081       .  S
C680       O1653   1.235       .  S
H682       C1665   1.081       .  S
C686        O691   1.274       .  A
O687        C688   1.272       .  A
O692      Mg1671   2.274       .  S
C693        C694   1.411       .  A
C693        C698   1.412       .  A
C694        C695   1.395       .  A
C694        H703   1.079       .  S
C695        C696   1.398       .  A
C695        H704   1.084       .  S
C696        C702   1.404       .  A
C696        C697   1.410       .  A
C697        C699   1.401       .  A
C697        C698   1.408       .  A
C698        H705   1.081       .  S
C699        C700   1.399       .  A
C699        H706   1.083       .  S
C700        C701   1.410       .  A
C700        H707   1.081       .  S
C701        C702   1.407       .  A
C702        H708   1.079       .  S
C709        C710   1.411       .  A
C709        C714   1.408       .  A
C710        C711   1.397       .  A
C710        H719   1.080       .  S
C711        C712   1.399       .  A
C711        H720   1.084       .  S
C712        C718   1.407       .  A
C712        C713   1.411       .  A
C713        C715   1.399       .  A
C713        C714   1.407       .  A
C714        H721   1.081       .  S
C715        C716   1.397       .  A
C715        H722   1.084       .  S
C716        C717   1.412       .  A
C716        H723   1.080       .  S
C717        C718   1.409       .  A
C718        H724   1.080       .  S
C725        C726   1.410       .  A
C725        C730   1.412       .  A
C726        C727   1.398       .  A
C726        H735   1.080       .  S
C727        C728   1.400       .  A
C727        H736   1.084       .  S
C728        C734   1.404       .  A
C728        C729   1.409       .  A
C729        C731   1.401       .  A
C729        C730   1.406       .  A
C730        H737   1.080       .  S
C731        C732   1.399       .  A
C731        H738   1.084       .  S
C732        C733   1.409       .  A
C732        H739   1.080       .  S
C733        C734   1.410       .  A
C734        H740   1.081       .  S
C741        C742   1.411       .  A
C741        C746   1.411       .  A
C742        C743   1.398       .  A
C742        H751   1.080       .  S
C743        C744   1.400       .  A
C743        H752   1.084       .  S
C744        C750   1.406       .  A
C744        C745   1.411       .  A
C745        C747   1.400       .  A
C745        C746   1.407       .  A
C746        H753   1.081       .  S
C747        C748   1.398       .  A
C747        H754   1.084       .  S
C748        C749   1.410       .  A
C748        H755   1.081       .  S
C749        C750   1.409       .  A
C750        H756   1.080       .  S
C757        C759   1.528       .  S
C757        C761   1.536       .  S
C757        C760   1.543       .  S
C757        C993   1.534       .  S
C758        C762   1.546       .  S
C758        C764   1.538       .  S
C758        C763   1.550       .  S
C758        C985   1.531       .  S
C759        C767   1.369       .  A
C760        C771   1.378       .  A
C761        C775   1.373       .  A
C762        C765   1.387       .  A
C763        C769   1.384       .  A
C764        C772   1.383       .  A
C765        H778   1.081       .  S
N766        C767   1.353       .  A
C767        H768   1.083       .  S
C769        H779   1.081       .  S
C769        N770   1.354       .  A
N770        C854   1.428       .  S
C771        H777   1.082       .  S
C772        H774   1.082       .  S
N773        C775   1.352       .  A
C775        H776   1.082       .  S
C780        C782   1.538       .  S
C780        C784   1.548       .  S
C780        C783   1.546       .  S
C780       C1001   1.530       .  S
C781        C785   1.538       .  S
C781        C787   1.542       .  S
C781        C786   1.527       .  S
C781        C977   1.535       .  S
C782        C790   1.383       .  A
C782        C785   1.396       .  A
C783        C794   1.387       .  A
C783        C786   1.396       .  A
C784        C798   1.384       .  A
C784        C787   1.400       .  A
C785        C788   1.374       .  A
C786        C792   1.367       .  A
C787        C795   1.378       .  A
C788        H801   1.082       .  S
C788        N789   1.353       .  A
N789        C790   1.357       .  A
N789        C906   1.426       .  S
C790        H791   1.082       .  S
C792        H802   1.083       .  S
C792        N793   1.352       .  A
N793        C794   1.357       .  A
N793        C914   1.424       .  S
C794        H800   1.081       .  S
C795        H797   1.081       .  S
C795        N796   1.354       .  A
N796        C798   1.354       .  A
N796        C940   1.427       .  S
C798        H799   1.081       .  S
C803        C805   1.540       .  S
C803        C807   1.554       .  S
C803        C806   1.543       .  S
C803        C961   1.530       .  S
C804        C808   1.536   1_556  S
C804        C810   1.541   1_556  S
C804        C809   1.526       .  S
C804        C945   1.533       .  S
C805        C813   1.386       .  A
C806        C817   1.383       .  A
C807        C821   1.388       .  A
C808        C811   1.372   1_554  A
C809        C815   1.372       .  A
C810        C818   1.375   1_554  A
C811        H824   1.082       .  S
N812        C813   1.358       .  A
N812        C858   1.427       .  S
C813        H814   1.082       .  S
C815        H825   1.083       .  S
C815        N816   1.352   1_556  A
C817        H823   1.082       .  S
C818        H820   1.082       .  S
N819        C821   1.357       .  A
N819        C892   1.430       .  S
C821        H822   1.081       .  S
C826        C828   1.527       .  S
C826        C830   1.538       .  S
C826        C829   1.536       .  S
C826        C969   1.534       .  S
C827        C831   1.551       .  S
C827        C833   1.541       .  S
C827        C832   1.548       .  S
C827        C953   1.532       .  S
C828        C836   1.369       .  A
C828        C831   1.396       .  A
C829        C840   1.373       .  A
C829        C832   1.396       .  A
C830        C844   1.376       .  A
C830        C833   1.399       .  A
C831        C834   1.390       .  A
C832        C838   1.388       .  A
C833        C841   1.382       .  A
C834        H847   1.081       .  S
C834        N835   1.356       .  A
N835        C836   1.351       .  A
N835        C938   1.425       .  S
C836        H837   1.083       .  S
C838        H848   1.081       .  S
C838        N839   1.355       .  A
N839        C840   1.350       .  A
N839        C902   1.425       .  S
C840        H846   1.082       .  S
C841        H843   1.082       .  S
C841        N842   1.357       .  A
N842        C844   1.354       .  A
N842        C913   1.427       .  S
C844        H845   1.081       .  S
O849       Mg851   2.143       .  S
C850        H889   1.081       .  S
C850        O863   1.235       .  S
C850        O887   1.268       .  A
Mg851      O1636   2.164       .  S
Mg851      O1899   2.269       .  S
Mg851      O1870   2.290       .  S
O852      Mg1650   2.159       .  S
O852       Mg877   2.135       .  S
O852       C1881   1.235       .  S
O853        C884   1.268   1_565  A
O853       Mg877   2.290       .  S
C854        O856   1.273       .  A
C854        O868   1.275   1_556  A
O855        C883   1.269       .  A
O856       Mg888   2.272       .  S
Mg857       O863   2.138   1_545  S
C858        O896   1.273       .  A
C858        O864   1.274       .  A
O859        C866   1.273       .  A
H860       C1881   1.081       .  S
C861        O876   1.268       .  A
O862        C885   1.268       .  A
O862      Mg1859   2.290   1_455  S
C865        O878   1.271       .  A
C865        O870   1.273       .  A
C866        O893   1.269       .  A
Mg867       O874   2.146       .  S
O869        C873   1.268   1_455  A
O871        C890   1.271       .  A
O872        C892   1.276       .  A
C873       H1868   1.081       .  S
C873       O1860   1.235       .  S
O874        C885   1.234       .  S
O875       Mg894   2.141       .  S
O876       Mg888   2.291       .  S
Mg877       O893   2.252       .  S
O878      Mg1902   2.266       .  S
O880      Mg1607   2.164   1_456  S
O880       Mg888   2.150       .  S
O880       C1891   1.235       .  S
H881       C1891   1.081       .  S
H882        C885   1.081       .  S
C883       H1889   1.081       .  S
C883       O1888   1.235       .  S
O887      Mg1902   2.292       .  S
C890        O895   1.273       .  A
O891        C892   1.272       .  A
O891      Mg1859   2.269   1_455  S
Mg894      O1608   2.159   1_456  S
Mg894      O1886   2.266   1_455  S
Mg894      O1895   2.292   1_455  S
O897       Mg899   2.144       .  S
O897      Mg1913   2.169   1_455  S
O897       C1940   1.235       .  S
C898        H937   1.081       .  S
C898        O911   1.234       .  S
C898        O935   1.267       .  A
Mg899       O943   2.296       .  S
O900       Mg925   2.137       .  S
O901        C932   1.269       .  A
O901       Mg925   2.296       .  S
C902        O904   1.272       .  A
C902        O916   1.274       .  A
O903        C931   1.268       .  A
O903      Mg1913   2.292   1_455  S
O904       Mg936   2.268       .  S
Mg905      O1905   2.169       .  S
Mg905       O911   2.135       .  S
Mg905      O1911   2.292       .  S
Mg905      O1927   2.259       .  S
Mg905       O907   2.280       .  S
C906        O944   1.273       .  A
C906        O912   1.273       .  A
O907        C914   1.272       .  A
C909       H1942   1.081       .  S
C909       O1931   1.235       .  S
C909        O924   1.268   1_655  A
O910        C933   1.268       .  A
O911       Mg925   2.171       .  S
O912       Mg942   2.290       .  S
C913        O926   1.272       .  A
C913        O918   1.274       .  A
C914        O941   1.271       .  A
Mg915       O922   2.145       .  S
Mg915      O1931   2.162   1_455  S
Mg915       O916   2.290       .  S
Mg915      O1925   2.290   1_455  S
Mg915      O1952   2.274   1_455  S
O917        C921   1.268       .  A
O917      Mg1923   2.290       .  S
O918       Mg925   2.302       .  S
O919        C938   1.270       .  A
O919      Mg1913   2.259   1_455  S
O920        C940   1.275       .  A
O920       Mg936   2.307       .  S
O922       Mg936   2.170       .  S
O922        C933   1.234       .  S
O923      Mg1923   2.162       .  S
O923       Mg942   2.141       .  S
O923       C1917   1.235       .  S
O924       Mg936   2.292       .  S
Mg925       O941   2.265       .  S
H927       C1940   1.081       .  S
O928       Mg936   2.142       .  S
H930        C933   1.081       .  S
C932       H1935   1.081       .  S
C932       O1905   1.235       .  S
H934       C1917   1.081       .  S
C938        O943   1.274       .  A
O939        C940   1.272       .  A
O944      Mg1923   2.274       .  S
C945        C946   1.411       .  A
C945        C950   1.412       .  A
C946        C947   1.395       .  A
C946        H955   1.079       .  S
C947        C948   1.398       .  A
C947        H956   1.084       .  S
C948        C954   1.404       .  A
C948        C949   1.410       .  A
C949        C951   1.401       .  A
C949        C950   1.408       .  A
C950        H957   1.081       .  S
C951        C952   1.399       .  A
C951        H958   1.083       .  S
C952        C953   1.410       .  A
C952        H959   1.081       .  S
C953        C954   1.407       .  A
C954        H960   1.079       .  S
C961        C962   1.411       .  A
C961        C966   1.408       .  A
C962        C963   1.397       .  A
C962        H971   1.080       .  S
C963        C964   1.399       .  A
C963        H972   1.084       .  S
C964        C970   1.407       .  A
C964        C965   1.411       .  A
C965        C967   1.399       .  A
C965        C966   1.407       .  A
C966        H973   1.081       .  S
C967        C968   1.397       .  A
C967        H974   1.084       .  S
C968        C969   1.412       .  A
C968        H975   1.080       .  S
C969        C970   1.409       .  A
C970        H976   1.080       .  S
C977        C978   1.410       .  A
C977        C982   1.412       .  A
C978        C979   1.398       .  A
C978        H987   1.080       .  S
C979        C980   1.400       .  A
C979        H988   1.084       .  S
C980        C986   1.404       .  A
C980        C981   1.409       .  A
C981        C983   1.401       .  A
C981        C982   1.406       .  A
C982        H989   1.080       .  S
C983        C984   1.399       .  A
C983        H990   1.084       .  S
C984        C985   1.409       .  A
C984        H991   1.080       .  S
C985        C986   1.410       .  A
C986        H992   1.081       .  S
C993        C994   1.411       .  A
C993        C998   1.411       .  A
C994        C995   1.398       .  A
C994       H1003   1.080       .  S
C995        C996   1.400       .  A
C995       H1004   1.084       .  S
C996       C1002   1.406       .  A
C996        C997   1.411       .  A
C997        C999   1.400       .  A
C997        C998   1.407       .  A
C998       H1005   1.081       .  S
C999       C1000   1.398       .  A
C999       H1006   1.084       .  S
C1000      C1001   1.410       .  A
C1000      H1007   1.081       .  S
C1001      C1002   1.409       .  A
C1002      H1008   1.080       .  S
C1009      C1011   1.528   1_554  S
C1009      C1013   1.536   1_554  S
C1009      C1012   1.543       .  S
C1009      C1245   1.534       .  S
C1010      C1014   1.546       .  S
C1010      C1016   1.538       .  S
C1010      C1015   1.550       .  S
C1010      C1237   1.531       .  S
C1011      C1019   1.369   1_556  A
C1011      C1266   1.394       .  A
C1012      C1023   1.378       .  A
C1012      C1267   1.402   1_554  A
C1013      C1027   1.373   1_556  A
C1013      C1268   1.395       .  A
C1014      C1263   1.394       .  A
C1014      C1017   1.387       .  A
C1015      C1264   1.402       .  A
C1015      C1021   1.384       .  A
C1016      C1265   1.395       .  A
C1016      C1024   1.383       .  A
C1017      H1030   1.081       .  S
C1017      N1270   1.355       .  A
N1018      C1269   1.355       .  A
N1018      C1019   1.353   1_556  A
N1018      C1394   1.425       .  S
C1019      H1020   1.083       .  S
C1021      H1031   1.081       .  S
C1021      N1022   1.354       .  A
N1022      C1275   1.354       .  A
N1022      C1106   1.428       .  S
C1023      H1029   1.082       .  S
C1023      N1274   1.354   1_554  A
C1024      H1026   1.082       .  S
C1024      N1277   1.357       .  A
N1025      C1276   1.357       .  A
N1025      C1027   1.352   1_556  A
N1025      C1369   1.425       .  S
C1027      H1028   1.082       .  S
C1032      C1034   1.538       .  S
C1032      C1036   1.548       .  S
C1032      C1035   1.546       .  S
C1032      C1253   1.530       .  S
C1033      C1037   1.538       .  S
C1033      C1039   1.542       .  S
C1033      C1038   1.527       .  S
C1033      C1229   1.535       .  S
C1034      C1042   1.383       .  A
C1034      C1037   1.396       .  A
C1035      C1046   1.387       .  A
C1035      C1038   1.396       .  A
C1036      C1050   1.384       .  A
C1036      C1039   1.400       .  A
C1037      C1040   1.374       .  A
C1038      C1044   1.367       .  A
C1039      C1047   1.378       .  A
C1040      H1053   1.082       .  S
C1040      N1041   1.353       .  A
N1041      C1042   1.357       .  A
N1041      C1158   1.426       .  S
C1042      H1043   1.082       .  S
C1044      H1054   1.083       .  S
C1044      N1045   1.352       .  A
N1045      C1046   1.357       .  A
N1045      C1166   1.424       .  S
C1046      H1052   1.081       .  S
C1047      H1049   1.081       .  S
C1047      N1048   1.354       .  A
N1048      C1050   1.354       .  A
N1048      C1192   1.427       .  S
C1050      H1051   1.081       .  S
C1055      C1057   1.540       .  S
C1055      C1059   1.554       .  S
C1055      C1058   1.543       .  S
C1055      C1213   1.530       .  S
C1056      C1060   1.536       .  S
C1056      C1062   1.541       .  S
C1056      C1061   1.526       .  S
C1056      C1197   1.533       .  S
C1057      C1065   1.386       .  A
C1057      C1312   1.395       .  A
C1058      C1069   1.383       .  A
C1058      C1313   1.391   1_554  A
C1059      C1073   1.388       .  A
C1059      C1314   1.403       .  A
C1060      C1309   1.395       .  A
C1060      C1063   1.372       .  A
C1061      C1310   1.391       .  A
C1061      C1067   1.372       .  A
C1062      C1311   1.403       .  A
C1062      C1070   1.375       .  A
C1063      H1076   1.082       .  S
C1063      N1316   1.352       .  A
N1064      C1315   1.352   1_554  A
N1064      C1065   1.358       .  A
N1064      C1110   1.427       .  S
C1065      H1066   1.082       .  S
C1067      H1077   1.083       .  S
C1067      N1068   1.352       .  A
N1068      C1321   1.354       .  A
N1068      C1370   1.423       .  S
C1069      H1075   1.082       .  S
C1069      N1320   1.354       .  A
C1070      H1072   1.082       .  S
C1070      N1323   1.354       .  A
N1071      C1322   1.354   1_554  A
N1071      C1073   1.357       .  A
N1071      C1144   1.430       .  S
C1073      H1074   1.081       .  S
C1078      C1080   1.527       .  S
C1078      C1082   1.538       .  S
C1078      C1081   1.536       .  S
C1078      C1221   1.534       .  S
C1079      C1083   1.551       .  S
C1079      C1085   1.541       .  S
C1079      C1084   1.548       .  S
C1079      C1205   1.532       .  S
C1080      C1088   1.369       .  A
C1080      C1083   1.396       .  A
C1081      C1092   1.373       .  A
C1081      C1084   1.396       .  A
C1082      C1096   1.376       .  A
C1082      C1085   1.399       .  A
C1083      C1086   1.390       .  A
C1084      C1090   1.388       .  A
C1085      C1093   1.382       .  A
C1086      H1099   1.081       .  S
C1086      N1087   1.356       .  A
N1087      C1088   1.351       .  A
N1087      C1190   1.425       .  S
C1088      H1089   1.083       .  S
C1090      H1100   1.081       .  S
C1090      N1091   1.355       .  A
N1091      C1092   1.350       .  A
N1091      C1154   1.425       .  S
C1092      H1098   1.082       .  S
C1093      H1095   1.082       .  S
C1093      N1094   1.357       .  A
N1094      C1096   1.354       .  A
N1094      C1165   1.427       .  S
C1096      H1097   1.081       .  S
O1101     Mg1103   2.143       .  S
O1101     Mg1865   2.171   1_554  S
O1101      C1640   1.234       .  S
C1102      H1141   1.081       .  S
C1102      O1115   1.235       .  S
C1102      O1139   1.268       .  A
Mg1103     O1399   2.286   1_554  S
O1104     Mg1129   2.135       .  S
O1105      C1136   1.268       .  A
O1105     Mg1129   2.290       .  S
C1106      O1108   1.273       .  A
C1106      O1120   1.275       .  A
O1107      C1135   1.269   1_655  A
O1107     Mg1613   2.296       .  S
O1108     Mg1140   2.272       .  S
Mg1109     O1857   2.171       .  S
Mg1109     O1115   2.138       .  S
Mg1109     O1611   2.296       .  S
Mg1109     O1627   2.264       .  S
Mg1109     O1363   2.291       .  S
C1110      O1148   1.273       .  A
C1110      O1116   1.274       .  A
O1111      C1118   1.273   1_556  A
O1111     Mg1361   2.291       .  S
C1113      H1642   1.081   1_545  S
C1113      O1631   1.235   1_545  S
C1113      O1128   1.268       .  A
O1114      C1137   1.268       .  A
O1115     Mg1381   2.172       .  S
O1116     Mg1398   2.291   1_554  S
C1117      N1277   1.425       .  S
C1117      O1130   1.271       .  A
C1117      O1122   1.273       .  A
C1118      N1320   1.423       .  S
C1118      O1145   1.269       .  A
Mg1119     O1126   2.146       .  S
Mg1119     O1883   2.170   1_544  S
Mg1119     O1372   2.302       .  S
Mg1119     O1625   2.290   1_545  S
Mg1119     O1652   2.277   1_545  S
O1120     Mg1371   2.302       .  S
O1121      C1125   1.268       .  A
O1121     Mg1623   2.290       .  S
O1122     Mg1381   2.292       .  S
O1123      C1142   1.271       .  A
O1123     Mg1613   2.264       .  S
O1124      C1144   1.276       .  A
O1124     Mg1392   2.312   1_554  S
O1126     Mg1392   2.169   1_554  S
O1126      C1137   1.234       .  S
O1127     Mg1875   2.170       .  S
O1127     Mg1146   2.141       .  S
O1127      C1617   1.235       .  S
O1128     Mg1140   2.291       .  S
Mg1129     O1367   2.172   1_554  S
Mg1129     O1374   2.292   1_554  S
Mg1129     O1145   2.252       .  S
H1131      C1640   1.081       .  S
O1132     Mg1140   2.150       .  S
H1134      C1137   1.081       .  S
C1136      H1635   1.081       .  S
C1136      O1605   1.234       .  S
H1138      C1617   1.081       .  S
Mg1140     O1378   2.169       .  S
Mg1140     O1376   2.312       .  S
C1142      N1270   1.425       .  S
C1142      O1147   1.273       .  A
O1143      C1144   1.272       .  A
Mg1146     O1368   2.291       .  S
O1147     Mg1355   2.286       .  S
O1148     Mg1623   2.277       .  S
O1149     Mg1151   2.144       .  S
C1150      H1189   1.081       .  S
C1150      O1163   1.234       .  S
C1150      O1187   1.267       .  A
Mg1151     O1684   2.168       .  S
Mg1151     O1195   2.296       .  S
Mg1151     O1695   2.264       .  S
Mg1151     O1666   2.292       .  S
O1152     Mg1698   2.169       .  S
O1152     Mg1177   2.137       .  S
O1152      C1677   1.235       .  S
O1153      C1184   1.269   1_655  A
O1153     Mg1177   2.296       .  S
C1154      O1156   1.272       .  A
C1154      O1168   1.274       .  A
O1155      C1183   1.268       .  A
O1156     Mg1188   2.268       .  S
Mg1157     O1163   2.135       .  S
Mg1157     O1159   2.280       .  S
C1158      O1196   1.273       .  A
C1158      O1164   1.273       .  A
O1159      C1166   1.272       .  A
H1160      C1677   1.081       .  S
C1161      O1176   1.268       .  A
O1162      C1185   1.268       .  A
O1162     Mg1655   2.292   1_545  S
O1163     Mg1177   2.171       .  S
O1164     Mg1194   2.290   1_545  S
C1165      O1178   1.272       .  A
C1165      O1170   1.274       .  A
C1166      O1193   1.271       .  A
Mg1167     O1174   2.145       .  S
Mg1167     O1168   2.290       .  S
O1169      C1173   1.268   1_545  A
O1170     Mg1177   2.302       .  S
O1171      C1190   1.270       .  A
O1172      C1192   1.275       .  A
O1172     Mg1188   2.307       .  S
C1173      H1664   1.081       .  S
C1173      O1656   1.235       .  S
O1174     Mg1188   2.170       .  S
O1174      C1185   1.234       .  S
O1175     Mg1194   2.141   1_545  S
O1176     Mg1188   2.292       .  S
Mg1177     O1193   2.265       .  S
O1178     Mg1698   2.264       .  S
O1180     Mg1655   2.168   1_545  S
O1180     Mg1188   2.142       .  S
O1180      C1687   1.234   1_545  S
H1181      C1687   1.081   1_545  S
H1182      C1185   1.081       .  S
C1183      H1685   1.081       .  S
C1183      O1684   1.234       .  S
O1187     Mg1698   2.286       .  S
C1190      O1195   1.274       .  A
O1191      C1192   1.272       .  A
O1191     Mg1655   2.264   1_545  S
Mg1194     O1656   2.169       .  S
Mg1194     O1682   2.264       .  S
Mg1194     O1691   2.286       .  S
C1197      C1198   1.411       .  A
C1197      C1202   1.412       .  A
C1198      C1199   1.395       .  A
C1198      H1207   1.079       .  S
C1199      C1200   1.398       .  A
C1199      H1208   1.084       .  S
C1200      C1206   1.404       .  A
C1200      C1201   1.410       .  A
C1201      C1203   1.401       .  A
C1201      C1202   1.408       .  A
C1202      H1209   1.081       .  S
C1203      C1204   1.399       .  A
C1203      H1210   1.083       .  S
C1204      C1205   1.410       .  A
C1204      H1211   1.081       .  S
C1205      C1206   1.407       .  A
C1206      H1212   1.079       .  S
C1213      C1214   1.411       .  A
C1213      C1218   1.408       .  A
C1214      C1215   1.397       .  A
C1214      H1223   1.080       .  S
C1215      C1216   1.399       .  A
C1215      H1224   1.084       .  S
C1216      C1222   1.407       .  A
C1216      C1217   1.411       .  A
C1217      C1219   1.399       .  A
C1217      C1218   1.407       .  A
C1218      H1225   1.081       .  S
C1219      C1220   1.397       .  A
C1219      H1226   1.084       .  S
C1220      C1221   1.412       .  A
C1220      H1227   1.080       .  S
C1221      C1222   1.409       .  A
C1222      H1228   1.080       .  S
C1229      C1230   1.410       .  A
C1229      C1234   1.412       .  A
C1230      C1231   1.398       .  A
C1230      H1239   1.080       .  S
C1231      C1232   1.400       .  A
C1231      H1240   1.084       .  S
C1232      C1238   1.404       .  A
C1232      C1233   1.409       .  A
C1233      C1235   1.401       .  A
C1233      C1234   1.406       .  A
C1234      H1241   1.080       .  S
C1235      C1236   1.399       .  A
C1235      H1242   1.084       .  S
C1236      C1237   1.409       .  A
C1236      H1243   1.080       .  S
C1237      C1238   1.410       .  A
C1238      H1244   1.081       .  S
C1245      C1246   1.411       .  A
C1245      C1250   1.411       .  A
C1246      C1247   1.398       .  A
C1246      H1255   1.080       .  S
C1247      C1248   1.400       .  A
C1247      H1256   1.084       .  S
C1248      C1254   1.406       .  A
C1248      C1249   1.411       .  A
C1249      C1251   1.400       .  A
C1249      C1250   1.407       .  A
C1250      H1257   1.081       .  S
C1251      C1252   1.398       .  A
C1251      H1258   1.084       .  S
C1252      C1253   1.410       .  A
C1252      H1259   1.081       .  S
C1253      C1254   1.409       .  A
C1254      H1260   1.080       .  S
C1261      C1263   1.528       .  S
C1261      C1265   1.536       .  S
C1261      C1264   1.543       .  S
C1261      C1497   1.534       .  S
C1262      C1266   1.546       .  S
C1262      C1268   1.538       .  S
C1262      C1267   1.550       .  S
C1262      C1489   1.531       .  S
C1263      C1271   1.369       .  A
C1264      C1275   1.378       .  A
C1265      C1279   1.373       .  A
C1266      C1269   1.387       .  A
C1267      C1273   1.384       .  A
C1268      C1276   1.383       .  A
C1269      H1282   1.081       .  S
N1270      C1271   1.353       .  A
C1271      H1272   1.083       .  S
C1273      H1283   1.081       .  S
C1273      N1274   1.354       .  A
N1274      C1358   1.428       .  S
C1275      H1281   1.082       .  S
C1276      H1278   1.082       .  S
N1277      C1279   1.352       .  A
C1279      H1280   1.082       .  S
C1284      C1286   1.538       .  S
C1284      C1288   1.548       .  S
C1284      C1287   1.546       .  S
C1284      C1505   1.530       .  S
C1285      C1289   1.538       .  S
C1285      C1291   1.542       .  S
C1285      C1290   1.527       .  S
C1285      C1481   1.535       .  S
C1286      C1294   1.383       .  A
C1286      C1289   1.396       .  A
C1287      C1298   1.387       .  A
C1287      C1290   1.396       .  A
C1288      C1302   1.384       .  A
C1288      C1291   1.400       .  A
C1289      C1292   1.374       .  A
C1290      C1296   1.367       .  A
C1291      C1299   1.378       .  A
C1292      H1305   1.082       .  S
C1292      N1293   1.353       .  A
N1293      C1294   1.357       .  A
N1293      C1410   1.426       .  S
C1294      H1295   1.082       .  S
C1296      H1306   1.083       .  S
C1296      N1297   1.352       .  A
N1297      C1298   1.357       .  A
N1297      C1418   1.424       .  S
C1298      H1304   1.081       .  S
C1299      H1301   1.081       .  S
C1299      N1300   1.354       .  A
N1300      C1302   1.354       .  A
N1300      C1444   1.427       .  S
C1302      H1303   1.081       .  S
C1307      C1309   1.540       .  S
C1307      C1311   1.554       .  S
C1307      C1310   1.543       .  S
C1307      C1465   1.530       .  S
C1308      C1312   1.536   1_556  S
C1308      C1314   1.541   1_556  S
C1308      C1313   1.526       .  S
C1308      C1449   1.533       .  S
C1309      C1317   1.386       .  A
C1310      C1321   1.383       .  A
C1311      C1325   1.388       .  A
C1312      C1315   1.372   1_554  A
C1313      C1319   1.372       .  A
C1314      C1322   1.375   1_554  A
C1315      H1328   1.082       .  S
N1316      C1317   1.358       .  A
N1316      C1362   1.427       .  S
C1317      H1318   1.082       .  S
C1319      H1329   1.083       .  S
C1319      N1320   1.352   1_556  A
C1321      H1327   1.082       .  S
C1322      H1324   1.082       .  S
N1323      C1325   1.357       .  A
N1323      C1396   1.430       .  S
C1325      H1326   1.081       .  S
C1330      C1332   1.527       .  S
C1330      C1334   1.538       .  S
C1330      C1333   1.536       .  S
C1330      C1473   1.534       .  S
C1331      C1335   1.551       .  S
C1331      C1337   1.541       .  S
C1331      C1336   1.548       .  S
C1331      C1457   1.532       .  S
C1332      C1340   1.369       .  A
C1332      C1335   1.396       .  A
C1333      C1344   1.373       .  A
C1333      C1336   1.396       .  A
C1334      C1348   1.376       .  A
C1334      C1337   1.399       .  A
C1335      C1338   1.390       .  A
C1336      C1342   1.388       .  A
C1337      C1345   1.382       .  A
C1338      H1351   1.081       .  S
C1338      N1339   1.356       .  A
N1339      C1340   1.351       .  A
N1339      C1442   1.425       .  S
C1340      H1341   1.083       .  S
C1342      H1352   1.081       .  S
C1342      N1343   1.355       .  A
N1343      C1344   1.350       .  A
N1343      C1406   1.425       .  S
C1344      H1350   1.082       .  S
C1345      H1347   1.082       .  S
C1345      N1346   1.357       .  A
N1346      C1348   1.354       .  A
N1346      C1417   1.427       .  S
C1348      H1349   1.081       .  S
O1353     Mg1355   2.143       .  S
O1353     Mg1613   2.171       .  S
O1353      C1892   1.234       .  S
C1354      H1393   1.081       .  S
C1354      O1367   1.235       .  S
C1354      O1391   1.268       .  A
O1356     Mg1381   2.135       .  S
O1357      C1388   1.268       .  A
O1357     Mg1381   2.290       .  S
C1358      O1360   1.273       .  A
C1358      O1372   1.275   1_556  A
O1359      C1387   1.269   1_655  A
O1359     Mg1865   2.296       .  S
O1360     Mg1392   2.272       .  S
Mg1361     O1605   2.171   1_556  S
Mg1361     O1367   2.138       .  S
Mg1361     O1863   2.296       .  S
Mg1361     O1879   2.264       .  S
C1362      O1400   1.273       .  A
C1362      O1368   1.274       .  A
O1363      C1370   1.273       .  A
C1365      H1894   1.081   1_545  S
C1365      O1883   1.235   1_545  S
C1365      O1380   1.268       .  A
O1366      C1389   1.268       .  A
C1369      O1382   1.271       .  A
C1369      O1374   1.273       .  A
C1370      O1397   1.269       .  A
Mg1371     O1378   2.146       .  S
Mg1371     O1631   2.170   1_545  S
Mg1371     O1877   2.290   1_545  S
Mg1371     O1904   2.277   1_545  S
O1373      C1377   1.268       .  A
O1373     Mg1875   2.290       .  S
O1375      C1394   1.271       .  A
O1375     Mg1865   2.264       .  S
O1376      C1396   1.276       .  A
O1378      C1389   1.234       .  S
O1379     Mg1623   2.170   1_556  S
O1379     Mg1398   2.141       .  S
O1379      C1869   1.235       .  S
O1380     Mg1392   2.291       .  S
Mg1381     O1397   2.252       .  S
H1383      C1892   1.081       .  S
O1384     Mg1392   2.150       .  S
H1386      C1389   1.081       .  S
C1388      H1887   1.081       .  S
C1388      O1857   1.234       .  S
H1390      C1869   1.081       .  S
C1394      O1399   1.273       .  A
O1395      C1396   1.272       .  A
O1400     Mg1875   2.277       .  S
O1401     Mg1403   2.144       .  S
C1402      H1441   1.081       .  S
C1402      O1415   1.234       .  S
C1402      O1439   1.267       .  A
Mg1403     O1936   2.168       .  S
Mg1403     O1447   2.296       .  S
Mg1403     O1947   2.264       .  S
Mg1403     O1918   2.292       .  S
O1404     Mg1950   2.169       .  S
O1404     Mg1429   2.137       .  S
O1404      C1929   1.235       .  S
O1405      C1436   1.269   1_655  A
O1405     Mg1429   2.296       .  S
C1406      O1408   1.272       .  A
C1406      O1420   1.274       .  A
O1407      C1435   1.268       .  A
O1408     Mg1440   2.268       .  S
Mg1409     O1415   2.135       .  S
Mg1409     O1411   2.280       .  S
C1410      O1448   1.273       .  A
C1410      O1416   1.273       .  A
O1411      C1418   1.272       .  A
H1412      C1929   1.081       .  S
C1413      O1428   1.268       .  A
O1414      C1437   1.268       .  A
O1414     Mg1907   2.292   1_545  S
O1415     Mg1429   2.171       .  S
O1416     Mg1446   2.290   1_545  S
C1417      O1430   1.272       .  A
C1417      O1422   1.274       .  A
C1418      O1445   1.271       .  A
Mg1419     O1426   2.145       .  S
Mg1419     O1420   2.290       .  S
O1421      C1425   1.268   1_545  A
O1422     Mg1429   2.302       .  S
O1423      C1442   1.270       .  A
O1424      C1444   1.275       .  A
O1424     Mg1440   2.307       .  S
C1425      H1916   1.081       .  S
C1425      O1908   1.235       .  S
O1426     Mg1440   2.170       .  S
O1426      C1437   1.234       .  S
O1427     Mg1446   2.141   1_545  S
O1428     Mg1440   2.292       .  S
Mg1429     O1445   2.265       .  S
O1430     Mg1950   2.264       .  S
O1432     Mg1907   2.168   1_545  S
O1432     Mg1440   2.142       .  S
O1432      C1939   1.234   1_545  S
H1433      C1939   1.081   1_545  S
H1434      C1437   1.081       .  S
C1435      H1937   1.081       .  S
C1435      O1936   1.234       .  S
O1439     Mg1950   2.286       .  S
C1442      O1447   1.274       .  A
O1443      C1444   1.272       .  A
O1443     Mg1907   2.264   1_545  S
Mg1446     O1908   2.169       .  S
Mg1446     O1934   2.264       .  S
Mg1446     O1943   2.286       .  S
C1449      C1450   1.411       .  A
C1449      C1454   1.412       .  A
C1450      C1451   1.395       .  A
C1450      H1459   1.079       .  S
C1451      C1452   1.398       .  A
C1451      H1460   1.084       .  S
C1452      C1458   1.404       .  A
C1452      C1453   1.410       .  A
C1453      C1455   1.401       .  A
C1453      C1454   1.408       .  A
C1454      H1461   1.081       .  S
C1455      C1456   1.399       .  A
C1455      H1462   1.084       .  S
C1456      C1457   1.410       .  A
C1456      H1463   1.081       .  S
C1457      C1458   1.407       .  A
C1458      H1464   1.079       .  S
C1465      C1466   1.411       .  A
C1465      C1470   1.408       .  A
C1466      C1467   1.397       .  A
C1466      H1475   1.080       .  S
C1467      C1468   1.399       .  A
C1467      H1476   1.084       .  S
C1468      C1474   1.407       .  A
C1468      C1469   1.411       .  A
C1469      C1471   1.399       .  A
C1469      C1470   1.407       .  A
C1470      H1477   1.081       .  S
C1471      C1472   1.397       .  A
C1471      H1478   1.084       .  S
C1472      C1473   1.412       .  A
C1472      H1479   1.080       .  S
C1473      C1474   1.409       .  A
C1474      H1480   1.080       .  S
C1481      C1482   1.410       .  A
C1481      C1486   1.412       .  A
C1482      C1483   1.398       .  A
C1482      H1491   1.080       .  S
C1483      C1484   1.400       .  A
C1483      H1492   1.084       .  S
C1484      C1490   1.404       .  A
C1484      C1485   1.409       .  A
C1485      C1487   1.401       .  A
C1485      C1486   1.406       .  A
C1486      H1493   1.080       .  S
C1487      C1488   1.399       .  A
C1487      H1494   1.084       .  S
C1488      C1489   1.409       .  A
C1488      H1495   1.080       .  S
C1489      C1490   1.410       .  A
C1490      H1496   1.081       .  S
C1497      C1498   1.411       .  A
C1497      C1502   1.411       .  A
C1498      C1499   1.398       .  A
C1498      H1507   1.080       .  S
C1499      C1500   1.400       .  A
C1499      H1508   1.084       .  S
C1500      C1506   1.406       .  A
C1500      C1501   1.411       .  A
C1501      C1503   1.400       .  A
C1501      C1502   1.407       .  A
C1502      H1509   1.081       .  S
C1503      C1504   1.398       .  A
C1503      H1510   1.084       .  S
C1504      C1505   1.410       .  A
C1504      H1511   1.081       .  S
C1505      C1506   1.409       .  A
C1506      H1512   1.080       .  S
C1513      C1515   1.528   1_554  S
C1513      C1517   1.536   1_554  S
C1513      C1516   1.543       .  S
C1513      C1749   1.534       .  S
C1514      C1518   1.546       .  S
C1514      C1520   1.538       .  S
C1514      C1519   1.550       .  S
C1514      C1741   1.531       .  S
C1515      C1523   1.369   1_556  A
C1515      C1770   1.394       .  A
C1516      C1527   1.378       .  A
C1516      C1771   1.402   1_554  A
C1517      C1531   1.373   1_556  A
C1517      C1772   1.395       .  A
C1518      C1767   1.394       .  A
C1518      C1521   1.387       .  A
C1519      C1768   1.402       .  A
C1519      C1525   1.384       .  A
C1520      C1769   1.395       .  A
C1520      C1528   1.383       .  A
C1521      H1534   1.081       .  S
C1521      N1774   1.355       .  A
N1522      C1773   1.355       .  A
N1522      C1523   1.353   1_556  A
N1522      C1898   1.425       .  S
C1523      H1524   1.083       .  S
C1525      H1535   1.081       .  S
C1525      N1526   1.354       .  A
N1526      C1779   1.354       .  A
N1526      C1610   1.428       .  S
C1527      H1533   1.082       .  S
C1527      N1778   1.354   1_554  A
C1528      H1530   1.082       .  S
C1528      N1781   1.357       .  A
N1529      C1780   1.357       .  A
N1529      C1531   1.352   1_556  A
N1529      C1873   1.425       .  S
C1531      H1532   1.082       .  S
C1536      C1538   1.538       .  S
C1536      C1540   1.548       .  S
C1536      C1539   1.546       .  S
C1536      C1757   1.530       .  S
C1537      C1541   1.538       .  S
C1537      C1543   1.542       .  S
C1537      C1542   1.527       .  S
C1537      C1733   1.535       .  S
C1538      C1546   1.383       .  A
C1538      C1541   1.396       .  A
C1539      C1550   1.387       .  A
C1539      C1542   1.396       .  A
C1540      C1554   1.384       .  A
C1540      C1543   1.400       .  A
C1541      C1544   1.374       .  A
C1542      C1548   1.367       .  A
C1543      C1551   1.378       .  A
C1544      H1557   1.082       .  S
C1544      N1545   1.353       .  A
N1545      C1546   1.357       .  A
N1545      C1662   1.426       .  S
C1546      H1547   1.082       .  S
C1548      H1558   1.083       .  S
C1548      N1549   1.352       .  A
N1549      C1550   1.357       .  A
N1549      C1670   1.424       .  S
C1550      H1556   1.081       .  S
C1551      H1553   1.081       .  S
C1551      N1552   1.354       .  A
N1552      C1554   1.354       .  A
N1552      C1696   1.427       .  S
C1554      H1555   1.081       .  S
C1559      C1561   1.540       .  S
C1559      C1563   1.554       .  S
C1559      C1562   1.543       .  S
C1559      C1717   1.530       .  S
C1560      C1564   1.536       .  S
C1560      C1566   1.541       .  S
C1560      C1565   1.526       .  S
C1560      C1701   1.533       .  S
C1561      C1569   1.386       .  A
C1561      C1816   1.395       .  A
C1562      C1573   1.383       .  A
C1562      C1817   1.391   1_554  A
C1563      C1577   1.388       .  A
C1563      C1818   1.403       .  A
C1564      C1813   1.395       .  A
C1564      C1567   1.372       .  A
C1565      C1814   1.391       .  A
C1565      C1571   1.372       .  A
C1566      C1815   1.403       .  A
C1566      C1574   1.375       .  A
C1567      H1580   1.082       .  S
C1567      N1820   1.352       .  A
N1568      C1819   1.352   1_554  A
N1568      C1569   1.358       .  A
N1568      C1614   1.427       .  S
C1569      H1570   1.082       .  S
C1571      H1581   1.083       .  S
C1571      N1572   1.352       .  A
N1572      C1825   1.354       .  A
N1572      C1874   1.423       .  S
C1573      H1579   1.082       .  S
C1573      N1824   1.354       .  A
C1574      H1576   1.082       .  S
C1574      N1827   1.354       .  A
N1575      C1826   1.354   1_554  A
N1575      C1577   1.357       .  A
N1575      C1648   1.430       .  S
C1577      H1578   1.081       .  S
C1582      C1584   1.527       .  S
C1582      C1586   1.538       .  S
C1582      C1585   1.536       .  S
C1582      C1725   1.534       .  S
C1583      C1587   1.551       .  S
C1583      C1589   1.541       .  S
C1583      C1588   1.548       .  S
C1583      C1709   1.532       .  S
C1584      C1592   1.369       .  A
C1584      C1587   1.396       .  A
C1585      C1596   1.373       .  A
C1585      C1588   1.396       .  A
C1586      C1600   1.376       .  A
C1586      C1589   1.399       .  A
C1587      C1590   1.390       .  A
C1588      C1594   1.388       .  A
C1589      C1597   1.382       .  A
C1590      H1603   1.081       .  S
C1590      N1591   1.356       .  A
N1591      C1592   1.351       .  A
N1591      C1694   1.425       .  S
C1592      H1593   1.083       .  S
C1594      H1604   1.081       .  S
C1594      N1595   1.355       .  A
N1595      C1596   1.350       .  A
N1595      C1658   1.425       .  S
C1596      H1602   1.082       .  S
C1597      H1599   1.082       .  S
C1597      N1598   1.357       .  A
N1598      C1600   1.354       .  A
N1598      C1669   1.427       .  S
C1600      H1601   1.081       .  S
O1605     Mg1607   2.143       .  S
C1606      H1645   1.081       .  S
C1606      O1619   1.235       .  S
C1606      O1643   1.268       .  A
Mg1607     O1903   2.286   1_554  S
O1608     Mg1633   2.135       .  S
O1609      C1640   1.268   1_565  A
O1609     Mg1633   2.290       .  S
C1610      O1612   1.273       .  A
C1610      O1624   1.275       .  A
O1611      C1639   1.269   1_655  A
O1612     Mg1644   2.272       .  S
Mg1613     O1619   2.138   1_545  S
Mg1613     O1867   2.291   1_545  S
C1614      O1652   1.273       .  A
C1614      O1620   1.274       .  A
O1615      C1622   1.273   1_556  A
O1615     Mg1865   2.291   1_565  S
C1617      O1632   1.268       .  A
O1618      C1641   1.268       .  A
O1619     Mg1885   2.172       .  S
O1620     Mg1902   2.291   1_554  S
C1621      N1781   1.425       .  S
C1621      O1634   1.271       .  A
C1621      O1626   1.273       .  A
C1622      N1824   1.423       .  S
C1622      O1649   1.269       .  A
Mg1623     O1630   2.146       .  S
Mg1623     O1876   2.302       .  S
O1624     Mg1875   2.302       .  S
O1625      C1629   1.268       .  A
O1626     Mg1885   2.292       .  S
O1627      C1646   1.271       .  A
O1628      C1648   1.276       .  A
O1628     Mg1896   2.312   1_554  S
O1630     Mg1896   2.169   1_554  S
O1630      C1641   1.234       .  S
O1631     Mg1650   2.141       .  S
O1632     Mg1644   2.291       .  S
Mg1633     O1871   2.172   1_554  S
Mg1633     O1878   2.292   1_554  S
Mg1633     O1649   2.252       .  S
O1636     Mg1644   2.150       .  S
H1638      C1641   1.081       .  S
Mg1644     O1882   2.169       .  S
Mg1644     O1880   2.312       .  S
C1646      N1774   1.425       .  S
C1646      O1651   1.273       .  A
O1647      C1648   1.272       .  A
Mg1650     O1872   2.291       .  S
O1651     Mg1859   2.286       .  S
O1653     Mg1655   2.144       .  S
C1654      H1693   1.081       .  S
C1654      O1667   1.234       .  S
C1654      O1691   1.267       .  A
Mg1655     O1699   2.296       .  S
O1656     Mg1681   2.137       .  S
O1657      C1688   1.269   1_655  A
O1657     Mg1681   2.296       .  S
C1658      O1660   1.272       .  A
C1658      O1672   1.274       .  A
O1659      C1687   1.268       .  A
O1660     Mg1692   2.268       .  S
Mg1661     O1667   2.135       .  S
Mg1661     O1663   2.280       .  S
C1662      O1700   1.273       .  A
C1662      O1668   1.273       .  A
O1663      C1670   1.272       .  A
C1665      O1680   1.268       .  A
O1666      C1689   1.268       .  A
O1667     Mg1681   2.171       .  S
O1668     Mg1698   2.290       .  S
C1669      O1682   1.272       .  A
C1669      O1674   1.274       .  A
C1670      O1697   1.271       .  A
Mg1671     O1678   2.145       .  S
Mg1671     O1672   2.290       .  S
O1673      C1677   1.268       .  A
O1674     Mg1681   2.302       .  S
O1675      C1694   1.270       .  A
O1676      C1696   1.275       .  A
O1676     Mg1692   2.307       .  S
O1678     Mg1692   2.170       .  S
O1678      C1689   1.234       .  S
O1679     Mg1698   2.141       .  S
O1680     Mg1692   2.292       .  S
Mg1681     O1697   2.265       .  S
O1684     Mg1692   2.142       .  S
H1686      C1689   1.081       .  S
C1694      O1699   1.274       .  A
O1695      C1696   1.272       .  A
C1701      C1702   1.411       .  A
C1701      C1706   1.412       .  A
C1702      C1703   1.395       .  A
C1702      H1711   1.079       .  S
C1703      C1704   1.398       .  A
C1703      H1712   1.084       .  S
C1704      C1710   1.404       .  A
C1704      C1705   1.410       .  A
C1705      C1707   1.401       .  A
C1705      C1706   1.408       .  A
C1706      H1713   1.081       .  S
C1707      C1708   1.399       .  A
C1707      H1714   1.083       .  S
C1708      C1709   1.410       .  A
C1708      H1715   1.081       .  S
C1709      C1710   1.407       .  A
C1710      H1716   1.079       .  S
C1717      C1718   1.411       .  A
C1717      C1722   1.408       .  A
C1718      C1719   1.397       .  A
C1718      H1727   1.080       .  S
C1719      C1720   1.399       .  A
C1719      H1728   1.084       .  S
C1720      C1726   1.407       .  A
C1720      C1721   1.411       .  A
C1721      C1723   1.399       .  A
C1721      C1722   1.407       .  A
C1722      H1729   1.081       .  S
C1723      C1724   1.397       .  A
C1723      H1730   1.084       .  S
C1724      C1725   1.412       .  A
C1724      H1731   1.080       .  S
C1725      C1726   1.409       .  A
C1726      H1732   1.080       .  S
C1733      C1734   1.410       .  A
C1733      C1738   1.412       .  A
C1734      C1735   1.398       .  A
C1734      H1743   1.080       .  S
C1735      C1736   1.400       .  A
C1735      H1744   1.084       .  S
C1736      C1742   1.404       .  A
C1736      C1737   1.409       .  A
C1737      C1739   1.401       .  A
C1737      C1738   1.406       .  A
C1738      H1745   1.080       .  S
C1739      C1740   1.399       .  A
C1739      H1746   1.084       .  S
C1740      C1741   1.409       .  A
C1740      H1747   1.080       .  S
C1741      C1742   1.410       .  A
C1742      H1748   1.081       .  S
C1749      C1750   1.411       .  A
C1749      C1754   1.411       .  A
C1750      C1751   1.398       .  A
C1750      H1759   1.080       .  S
C1751      C1752   1.400       .  A
C1751      H1760   1.084       .  S
C1752      C1758   1.406       .  A
C1752      C1753   1.411       .  A
C1753      C1755   1.400       .  A
C1753      C1754   1.407       .  A
C1754      H1761   1.081       .  S
C1755      C1756   1.398       .  A
C1755      H1762   1.084       .  S
C1756      C1757   1.410       .  A
C1756      H1763   1.081       .  S
C1757      C1758   1.409       .  A
C1758      H1764   1.080       .  S
C1765      C1767   1.528       .  S
C1765      C1769   1.536       .  S
C1765      C1768   1.543       .  S
C1765      C2001   1.534       .  S
C1766      C1770   1.546       .  S
C1766      C1772   1.538       .  S
C1766      C1771   1.550       .  S
C1766      C1993   1.531       .  S
C1767      C1775   1.369       .  A
C1768      C1779   1.378       .  A
C1769      C1783   1.373       .  A
C1770      C1773   1.387       .  A
C1771      C1777   1.384       .  A
C1772      C1780   1.383       .  A
C1773      H1786   1.081       .  S
N1774      C1775   1.353       .  A
C1775      H1776   1.083       .  S
C1777      H1787   1.081       .  S
C1777      N1778   1.354       .  A
N1778      C1862   1.428       .  S
C1779      H1785   1.082       .  S
C1780      H1782   1.082       .  S
N1781      C1783   1.352       .  A
C1783      H1784   1.082       .  S
C1788      C1790   1.538       .  S
C1788      C1792   1.548       .  S
C1788      C1791   1.546       .  S
C1788      C2009   1.530       .  S
C1789      C1793   1.538       .  S
C1789      C1795   1.542       .  S
C1789      C1794   1.527       .  S
C1789      C1985   1.535       .  S
C1790      C1798   1.383       .  A
C1790      C1793   1.396       .  A
C1791      C1802   1.387       .  A
C1791      C1794   1.396       .  A
C1792      C1806   1.384       .  A
C1792      C1795   1.400       .  A
C1793      C1796   1.374       .  A
C1794      C1800   1.367       .  A
C1795      C1803   1.378       .  A
C1796      H1809   1.082       .  S
C1796      N1797   1.353       .  A
N1797      C1798   1.357       .  A
N1797      C1914   1.426       .  S
C1798      H1799   1.082       .  S
C1800      H1810   1.083       .  S
C1800      N1801   1.352       .  A
N1801      C1802   1.357       .  A
N1801      C1922   1.424       .  S
C1802      H1808   1.081       .  S
C1803      H1805   1.081       .  S
C1803      N1804   1.354       .  A
N1804      C1806   1.354       .  A
N1804      C1948   1.427       .  S
C1806      H1807   1.081       .  S
C1811      C1813   1.540       .  S
C1811      C1815   1.554       .  S
C1811      C1814   1.543       .  S
C1811      C1969   1.530       .  S
C1812      C1816   1.536   1_556  S
C1812      C1818   1.541   1_556  S
C1812      C1817   1.526       .  S
C1812      C1953   1.533       .  S
C1813      C1821   1.386       .  A
C1814      C1825   1.383       .  A
C1815      C1829   1.388       .  A
C1816      C1819   1.372   1_554  A
C1817      C1823   1.372       .  A
C1818      C1826   1.375   1_554  A
C1819      H1832   1.082       .  S
N1820      C1821   1.358       .  A
N1820      C1866   1.427       .  S
C1821      H1822   1.082       .  S
C1823      H1833   1.083       .  S
C1823      N1824   1.352   1_556  A
C1825      H1831   1.082       .  S
C1826      H1828   1.082       .  S
N1827      C1829   1.357       .  A
N1827      C1900   1.430       .  S
C1829      H1830   1.081       .  S
C1834      C1836   1.527       .  S
C1834      C1838   1.538       .  S
C1834      C1837   1.536       .  S
C1834      C1977   1.534       .  S
C1835      C1839   1.551       .  S
C1835      C1841   1.541       .  S
C1835      C1840   1.548       .  S
C1835      C1961   1.532       .  S
C1836      C1844   1.369       .  A
C1836      C1839   1.396       .  A
C1837      C1848   1.373       .  A
C1837      C1840   1.396       .  A
C1838      C1852   1.376       .  A
C1838      C1841   1.399       .  A
C1839      C1842   1.390       .  A
C1840      C1846   1.388       .  A
C1841      C1849   1.382       .  A
C1842      H1855   1.081       .  S
C1842      N1843   1.356       .  A
N1843      C1844   1.351       .  A
N1843      C1946   1.425       .  S
C1844      H1845   1.083       .  S
C1846      H1856   1.081       .  S
C1846      N1847   1.355       .  A
N1847      C1848   1.350       .  A
N1847      C1910   1.425       .  S
C1848      H1854   1.082       .  S
C1849      H1851   1.082       .  S
C1849      N1850   1.357       .  A
N1850      C1852   1.354       .  A
N1850      C1921   1.427       .  S
C1852      H1853   1.081       .  S
O1857     Mg1859   2.143       .  S
C1858      H1897   1.081       .  S
C1858      O1871   1.235       .  S
C1858      O1895   1.268       .  A
O1860     Mg1885   2.135       .  S
O1861      C1892   1.268   1_565  A
O1861     Mg1885   2.290       .  S
C1862      O1864   1.273       .  A
C1862      O1876   1.275   1_556  A
O1863      C1891   1.269   1_655  A
O1864     Mg1896   2.272       .  S
Mg1865     O1871   2.138   1_545  S
C1866      O1904   1.273       .  A
C1866      O1872   1.274       .  A
O1867      C1874   1.273       .  A
C1869      O1884   1.268       .  A
O1870      C1893   1.268       .  A
C1873      O1886   1.271       .  A
C1873      O1878   1.273       .  A
C1874      O1901   1.269       .  A
Mg1875     O1882   2.146       .  S
O1877      C1881   1.268       .  A
O1879      C1898   1.271       .  A
O1880      C1900   1.276       .  A
O1882      C1893   1.234       .  S
O1883     Mg1902   2.141       .  S
O1884     Mg1896   2.291       .  S
Mg1885     O1901   2.252       .  S
O1888     Mg1896   2.150       .  S
H1890      C1893   1.081       .  S
C1898      O1903   1.273       .  A
O1899      C1900   1.272       .  A
O1905     Mg1907   2.144       .  S
C1906      H1945   1.081       .  S
C1906      O1919   1.234       .  S
C1906      O1943   1.267       .  A
Mg1907     O1951   2.296       .  S
O1908     Mg1933   2.137       .  S
O1909      C1940   1.269   1_655  A
O1909     Mg1933   2.296       .  S
C1910      O1912   1.272       .  A
C1910      O1924   1.274       .  A
O1911      C1939   1.268       .  A
O1912     Mg1944   2.268       .  S
Mg1913     O1919   2.135       .  S
Mg1913     O1915   2.280       .  S
C1914      O1952   1.273       .  A
C1914      O1920   1.273       .  A
O1915      C1922   1.272       .  A
C1917      O1932   1.268       .  A
O1918      C1941   1.268       .  A
O1919     Mg1933   2.171       .  S
O1920     Mg1950   2.290       .  S
C1921      O1934   1.272       .  A
C1921      O1926   1.274       .  A
C1922      O1949   1.271       .  A
Mg1923     O1930   2.145       .  S
Mg1923     O1924   2.290       .  S
O1925      C1929   1.268       .  A
O1926     Mg1933   2.302       .  S
O1927      C1946   1.270       .  A
O1928      C1948   1.275       .  A
O1928     Mg1944   2.307       .  S
O1930     Mg1944   2.170       .  S
O1930      C1941   1.234       .  S
O1931     Mg1950   2.141       .  S
O1932     Mg1944   2.292       .  S
Mg1933     O1949   2.265       .  S
O1936     Mg1944   2.142       .  S
H1938      C1941   1.081       .  S
C1946      O1951   1.274       .  A
O1947      C1948   1.272       .  A
C1953      C1954   1.411       .  A
C1953      C1958   1.412       .  A
C1954      C1955   1.395       .  A
C1954      H1963   1.079       .  S
C1955      C1956   1.398       .  A
C1955      H1964   1.084       .  S
C1956      C1962   1.404       .  A
C1956      C1957   1.410       .  A
C1957      C1959   1.401       .  A
C1957      C1958   1.408       .  A
C1958      H1965   1.081       .  S
C1959      C1960   1.399       .  A
C1959      H1966   1.084       .  S
C1960      C1961   1.410       .  A
C1960      H1967   1.081       .  S
C1961      C1962   1.407       .  A
C1962      H1968   1.079       .  S
C1969      C1970   1.411       .  A
C1969      C1974   1.408       .  A
C1970      C1971   1.397       .  A
C1970      H1979   1.080       .  S
C1971      C1972   1.399       .  A
C1971      H1980   1.084       .  S
C1972      C1978   1.407       .  A
C1972      C1973   1.411       .  A
C1973      C1975   1.399       .  A
C1973      C1974   1.407       .  A
C1974      H1981   1.081       .  S
C1975      C1976   1.397       .  A
C1975      H1982   1.084       .  S
C1976      C1977   1.412       .  A
C1976      H1983   1.080       .  S
C1977      C1978   1.409       .  A
C1978      H1984   1.080       .  S
C1985      C1986   1.410       .  A
C1985      C1990   1.412       .  A
C1986      C1987   1.398       .  A
C1986      H1995   1.080       .  S
C1987      C1988   1.400       .  A
C1987      H1996   1.084       .  S
C1988      C1994   1.404       .  A
C1988      C1989   1.409       .  A
C1989      C1991   1.401       .  A
C1989      C1990   1.406       .  A
C1990      H1997   1.080       .  S
C1991      C1992   1.399       .  A
C1991      H1998   1.084       .  S
C1992      C1993   1.409       .  A
C1992      H1999   1.080       .  S
C1993      C1994   1.410       .  A
C1994      H2000   1.081       .  S
C2001      C2002   1.411       .  A
C2001      C2006   1.411       .  A
C2002      C2003   1.398       .  A
C2002      H2011   1.080       .  S
C2003      C2004   1.400       .  A
C2003      H2012   1.084       .  S
C2004      C2010   1.406       .  A
C2004      C2005   1.411       .  A
C2005      C2007   1.400       .  A
C2005      C2006   1.407       .  A
C2006      H2013   1.081       .  S
C2007      C2008   1.398       .  A
C2007      H2014   1.084       .  S
C2008      C2009   1.410       .  A
C2008      H2015   1.081       .  S
C2009      C2010   1.409       .  A
C2010      H2016   1.080       .  S
