geometry optimzed in LAMMPS
_audit_creation_date              2020-12-01 
_audit_creation_method            'lammps2cif' 
_symmetry_space_group_name_H-M    'P1' 
_symmetry_Int_Tables_number       1 
_symmetry_cell_setting            triclinic 
loop_ 
_symmetry_equiv_pos_as_xyz 
  x,y,z 
_cell_length_a                    41.44479314 
_cell_length_b                    41.441637041189786 
_cell_length_c                    42.34103934342786 
_cell_angle_alpha                 89.9754296523177 
_cell_angle_beta                  90.91445799161357 
_cell_angle_gamma                 120.10933067447604 
loop_ 
_atom_site_label 
_atom_site_type_symbol 
_atom_site_fract_x 
_atom_site_fract_y 
_atom_site_fract_z 
_atom_site_charge 
N1          N  0.99176201  0.22094610  0.03716369    -0.35800
N2          N  0.98793295  0.28903790  0.02916648    -0.56400
N3          N  0.00815450  0.29923697  0.46377881    -0.35800
N4          N  0.00494044  0.22790097  0.46838972    -0.56400
C5          C  0.98085373  0.22507270  0.06615553     0.27800
C6          C  0.98379672  0.18503424  0.03455014     0.27800
C7          C  0.00165180  0.32806089  0.46618186     0.27800
C8          C  0.00715281  0.29122129  0.43265464     0.27800
C9          C  0.98948849  0.28876821  0.06108090     0.36400
C10         C  0.99105576  0.32198337  0.02091171     0.36400
C11         C  0.50287421  0.19571889  0.47230833     0.36400
C12         C  0.50854222  0.23203448  0.43297930     0.36400
C13         C  0.96558279  0.19145847  0.08195573    -0.21100
C14         C  0.96788425  0.16634500  0.06226847    -0.21100
C15         C  0.99706427  0.33891532  0.43632075    -0.21100
C16         C  0.00090824  0.31603258  0.41524413    -0.21100
C17         C  0.99336533  0.32155036  0.07326659    -0.22200
C18         C  0.99421297  0.34251048  0.04790800    -0.22200
C19         C  0.51455782  0.18367805  0.44659900    -0.22200
C20         C  0.51854544  0.20688009  0.42195179    -0.22200
C21         C  0.98570817  0.25867379  0.07942931    -0.17500
C22         C  0.49010332  0.16816352  0.00309079    -0.17500
C23         C  0.01250963  0.26284828  0.41934442    -0.17500
C24         C  0.99203747  0.33462822  0.98956593    -0.17500
H25         H  0.95342636  0.18550594  0.10514297     0.15400
H26         H  0.95860935  0.13755085  0.06783005     0.15400
H27         H  0.99211276  0.36146067  0.43024361     0.15400
H28         H  0.99996886  0.31827064  0.38995369     0.15400
H29         H  0.99508630  0.32949515  0.09783400     0.13700
H30         H  0.99740047  0.37004824  0.04929604     0.13700
H31         H  0.51960269  0.16051643  0.44540704     0.13700
H32         H  0.52815605  0.20552055  0.39869561     0.13700
H33         H  0.00765829  0.24242929  0.02169075     0.26900
H34         H  0.01611305  0.28801348  0.48207716     0.26900
N35         N  0.00715122  0.21746941  0.21232078    -0.35800
N36         N  0.00193177  0.20927806  0.28077865    -0.56400
N37         N  0.00767730  0.28220058  0.28637417    -0.35800
N38         N  0.00794085  0.28812612  0.21742776    -0.56400
C39         C  0.00350870  0.18320776  0.21474893     0.27800
C40         C  0.00533130  0.22411860  0.18124959     0.27800
C41         C  0.99465661  0.26746815  0.31511597     0.27800
C42         C  0.00088305  0.31069839  0.28236054     0.27800
C43         C  0.00649570  0.17998023  0.27376647     0.36400
C44         C  0.00330033  0.21235812  0.31264790     0.36400
C45         C  0.01205312  0.28770745  0.18575931     0.36400
C46         C  0.01478387  0.32270517  0.22522679     0.36400
C47         C  0.99978465  0.16801927  0.18489182    -0.21100
C48         C  0.00108718  0.19376200  0.16383408    -0.21100
C49         C  0.97881502  0.28633914  0.32905674    -0.21100
C50         C  0.98346613  0.31417454  0.30872155    -0.21100
C51         C  0.01016288  0.16407103  0.30147518    -0.22200
C52         C  0.00823049  0.18460178  0.32601498    -0.22200
C53         C  0.02095045  0.32209412  0.17333600    -0.22200
C54         C  0.02272140  0.34422619  0.19825185    -0.22200
C55         C  0.00542132  0.16593586  0.24293793    -0.17500
C56         C  0.00871919  0.25710349  0.16787130    -0.17500
C57         C  0.01068179  0.33409665  0.25578771    -0.17500
C58         C  0.99830019  0.23869799  0.32983643    -0.17500
H59         H  0.99724463  0.14147688  0.17876708     0.15400
H60         H  0.00019332  0.19063691  0.13850267     0.15400
H61         H  0.96439703  0.27990129  0.35121986     0.15400
H62         H  0.97408461  0.33396676  0.31250311     0.15400
H63         H  0.01348672  0.13989778  0.30390703     0.13700
H64         H  0.00980090  0.17928651  0.35082672     0.13700
H65         H  0.02631642  0.33066220  0.14895181     0.13700
H66         H  0.02878592  0.37279915  0.19660205     0.13700
H67         H  0.01334312  0.23626578  0.23060723     0.26900
H68         H  0.02391904  0.27601227  0.27186281     0.26900
O69         O  0.00919035  0.45522571  0.01949082    -0.87600
C70         C  0.06134921  0.04085731  0.45209332     0.88500
Mg71       Mg  0.45127869  0.41091648  0.01827995     1.58100
O72         O  0.03970025  0.06404321  0.02134534    -0.87300
O73         O  0.05009465  0.99852399  0.05037311    -0.74600
C74         C  0.36061886  0.00656886  0.49080385     0.93500
O75         O  0.99160495  0.45162809  0.44845999    -0.74400
O76         O  0.35940665  0.47611130  0.48332305    -0.81900
Mg77       Mg  0.04373079  0.47073131  0.47994965     1.58000
C78         C  0.99077564  0.13277330  0.01227185     0.93400
O79         O  0.09296577  0.47372346  0.99859442    -0.80200
H80         H  0.04983283  0.07595838  0.06746381    -0.05500
C81         C  0.46129135  0.04185654  0.45005632     0.88400
O82         O  0.43612965  0.44395552  0.05290766    -0.74700
O83         O  0.05792892  0.02660860  0.47832199    -0.87500
O84         O  0.02043833  0.13145015  0.00784333    -0.80300
C85         C  0.12717475  0.14245758  0.49129076     0.93600
C86         C  0.12435063  0.00153731  0.00715842     0.93400
Mg87       Mg  0.44395574  0.04241535  0.01890015     1.58000
O88         O  0.39162496  0.03694592  0.49253655    -0.80200
O89         O  0.49682223  0.06228369  0.05009169    -0.74400
O90         O  0.12565752  0.11174219  0.49748814    -0.80300
O91         O  0.02995726  0.41088554  0.48440328    -0.82000
O92         O  0.36100884  0.39695341  0.00735200    -0.80300
C93         C  0.02996963  0.06732240  0.04798280     0.87900
O94         O  0.42826434  0.48354777  0.02448578    -0.87500
O95         O  0.47686075  0.05576687  0.47562119    -0.87600
O96         O  0.43705770  0.51200478  0.44571028    -0.74600
Mg97       Mg  0.08200065  0.04852005  0.01736947     1.58000
O98         O  0.09827066  0.14478080  0.48530460    -0.82000
H99         H  0.01677554  0.44893569  0.06535072    -0.05700
O100        O  0.44775720  0.44682090  0.47560526    -0.87300
H101        H  0.43854418  0.43465165  0.42948969    -0.05500
H102        H  0.42058635  0.47933602  0.07114826    -0.05700
C103        C  0.45812791  0.44375395  0.44919980     0.87800
C104        C  0.02544532  0.46720602  0.04516556     0.88400
C105        C  0.42769336  0.46937416  0.05027389     0.88500
H106        H  0.47031491  0.05866351  0.42899405    -0.05700
O107        O  0.05382024  0.06663380  0.44753466    -0.74700
Mg108      Mg  0.40473375  0.46144431  0.47807715     1.58000
H109        H  0.06996722  0.03047445  0.43243971    -0.05700
C110        C  0.00042469  0.38124926  0.49190589     0.93400
O111        O  0.39112493  0.36562057  0.01493774    -0.82000
C112        C  0.36118177  0.36659185  0.01135600     0.93500
O113        O  0.12655162  0.03283798  0.01189698    -0.81900
Mg114      Mg  0.03736092  0.10014320  0.48009962     1.58200
O115        O  0.46918975  0.38101312  0.49365131    -0.80300
O116        O  0.45811890  0.10248243  0.01178869    -0.82000
O117        O  0.49203949  0.04658949  0.27279107    -0.87600
C118        C  0.43955168  0.46926434  0.19700829     0.88500
Mg119      Mg  0.04881712  0.08900876  0.27264454     1.58100
O120        O  0.46011560  0.43348583  0.26528851    -0.87300
O121        O  0.45241660  0.49828556  0.29894966    -0.74600
C122        C  0.14030528  0.00053043  0.24173179     0.93500
O123        O  0.50861930  0.05398834  0.19817853    -0.74400
O124        O  0.14255835  0.03207369  0.23837315    -0.81900
Mg125      Mg  0.45878127  0.03825963  0.23034528     1.58000
C126        C  0.01225603  0.37050002  0.25862430     0.93400
O127        O  0.40448649  0.02529272  0.25451187    -0.80200
H128        H  0.45353978  0.42029462  0.31107517    -0.05500
C129        C  0.03957895  0.46598883  0.19982980     0.88400
O130        O  0.06617119  0.05550736  0.30528587    -0.74700
O131        O  0.44330420  0.48272312  0.22372857    -0.87500
O132        O  0.47894256  0.36695841  0.24505589    -0.80300
C133        C  0.37455655  0.36565102  0.23179714     0.93600
C134        C  0.37462319  0.99652378  0.26312046     0.93400
Mg135      Mg  0.05803070  0.46070075  0.26810324     1.58000
O136        O  0.11288653  0.47680836  0.24276142    -0.80200
O137        O  0.00744821  0.44232316  0.30020046    -0.74400
O138        O  0.37647261  0.39674642  0.23720194    -0.80300
O139        O  0.47434716  0.09864816  0.23249929    -0.82000
O140        O  0.13781052  0.10188050  0.26074551    -0.80300
C141        C  0.47195039  0.42971888  0.29113400     0.87900
O142        O  0.07149617  0.01567238  0.27525530    -0.87500
O143        O  0.02553402  0.45439643  0.22584761    -0.87600
O144        O  0.06283974  0.99653804  0.20099339    -0.74600
Mg145      Mg  0.41771410  0.44917714  0.26493134     1.58000
O146        O  0.40330933  0.36309602  0.22643168    -0.82000
H147        H  0.48974080  0.05698794  0.31853926    -0.05700
O148        O  0.05452688  0.06260229  0.23080991    -0.87300
H149        H  0.06143989  0.07252200  0.18448557    -0.05500
H150        H  0.08247014  0.01972570  0.32170631    -0.05700
C151        C  0.04286973  0.06452973  0.20427951     0.87800
C152        C  0.47888267  0.03692301  0.29932985     0.88400
C153        C  0.07403289  0.02984229  0.30147546     0.88500
H154        H  0.02987995  0.44716452  0.17973650    -0.05700
O155        O  0.44659208  0.44329843  0.19163622    -0.74700
Mg156      Mg  0.09736739  0.04757681  0.23374758     1.58000
H157        H  0.43068493  0.48023994  0.17768735    -0.05700
C158        C  0.00485317  0.12999654  0.24068610     0.93400
O159        O  0.10907284  0.13433747  0.26849568    -0.82000
C160        C  0.13855841  0.13276943  0.26452056     0.93500
O161        O  0.37244401  0.46467465  0.26307160    -0.81900
Mg162      Mg  0.46426798  0.40839333  0.22200953     1.58200
O163        O  0.03465064  0.12951149  0.24736484    -0.80300
O164        O  0.04363953  0.40006811  0.26294941    -0.82000
N165        N  0.27777194  0.99776239  0.03272402    -0.35800
N166        N  0.20792523  0.99717628  0.03684685    -0.56400
N167        N  0.20680894  0.01136126  0.47087426    -0.35800
N168        N  0.27565355  0.00941500  0.46472497    -0.56400
C169        C  0.26978785  0.98812347  0.06347095     0.27800
C170        C  0.30414291  0.98943363  0.02410326     0.27800
C171        C  0.17268471  0.00538040  0.47857658     0.27800
C172        C  0.20702873  0.00739243  0.43906920     0.27800
C173        C  0.21588050  0.99874317  0.06810493     0.36400
C174        C  0.17873297  0.00308145  0.03400187     0.36400
C175        C  0.31135678  0.01726401  0.46781170     0.36400
C176        C  0.27189651  0.01938533  0.43514081     0.36400
C177        C  0.29164812  0.97378573  0.07459291    -0.21100
C178        C  0.31337382  0.97471820  0.04986002    -0.21100
C179        C  0.15128484  0.99847720  0.45111452    -0.21100
C180        C  0.17277415  0.99934349  0.42633295    -0.21100
C181        C  0.19106255  0.00496819  0.08499697    -0.22200
C182        C  0.16785362  0.00806478  0.06345361    -0.22200
C183        C  0.33043648  0.03236801  0.44019538    -0.22200
C184        C  0.30552944  0.03427579  0.41966555    -0.22200
C185        C  0.24373705  0.99255527  0.08178330    -0.17500
C186        C  0.32218610  0.99769705  0.99446988    -0.17500
C187        C  0.23784428  0.01257567  0.42111370    -0.17500
C188        C  0.15906144  0.99990016  0.00564863    -0.17500
H189        H  0.29188615  0.96356627  0.09805568     0.15400
H190        H  0.33390138  0.96587510  0.05089293     0.15400
H191        H  0.12300638  0.99322932  0.44893915     0.15400
H192        H  0.16421707  0.99504650  0.40169323     0.15400
H193        H  0.18865517  0.00579708  0.11022381     0.13700
H194        H  0.14460196  0.01192706  0.06900391     0.13700
H195        H  0.35922399  0.04108798  0.43534866     0.13700
H196        H  0.31147286  0.04552748  0.39606376     0.13700
H197        H  0.26882340  0.01288380  0.01935195     0.26900
H198        H  0.22966122  0.02118628  0.48612088     0.26900
N199        N  0.29799450  0.00404125  0.22179667    -0.35800
N200        N  0.22629769  0.00047792  0.21439116    -0.56400
N201        N  0.21876719  0.99646378  0.28330653    -0.35800
N202        N  0.28758686  0.99470525  0.29029455    -0.56400
C203        C  0.29294994  0.99978875  0.18999476     0.27800
C204        C  0.32469475  0.99573129  0.22994422     0.27800
C205        C  0.18430677  0.98907906  0.27381561     0.27800
C206        C  0.21695319  0.98721074  0.31422899     0.27800
C207        C  0.24058890  0.01241719  0.18539922     0.36400
C208        C  0.19865507  0.00853837  0.21764999     0.36400
C209        C  0.32207228  0.99886792  0.28876588     0.36400
C210        C  0.28077487  0.99589361  0.32129740     0.36400
C211        C  0.31704195  0.98913731  0.17776989    -0.21100
C212        C  0.33707487  0.98662114  0.20289893    -0.21100
C213        C  0.16039283  0.97507591  0.29923738    -0.21100
C214        C  0.18091318  0.97377379  0.32456039    -0.21100
C215        C  0.22234961  0.02856712  0.17043968    -0.22200
C216        C  0.19525097  0.02545025  0.19055015    -0.22200
C217        C  0.33709409  0.00224199  0.31879958    -0.22200
C218        C  0.31098116  0.00022610  0.33938360    -0.22200
C219        C  0.26837119  0.00686982  0.17161739    -0.17500
C220        C  0.33943472  0.99750540  0.26081395    -0.17500
C221        C  0.24717416  0.99153610  0.33361911    -0.17500
C222        C  0.17515181  0.99868188  0.24404200    -0.17500
H223        H  0.32004611  0.98384839  0.15328159     0.15400
H224        H  0.35838769  0.97890461  0.20136658     0.15400
H225        H  0.13131130  0.96728525  0.29998126     0.15400
H226        H  0.17040794  0.96414748  0.34797768     0.15400
H227        H  0.22870185  0.04210110  0.14774903     0.13700
H228        H  0.17576471  0.03508985  0.18584572     0.13700
H229        H  0.36383383  0.00520652  0.32525736     0.13700
H230        H  0.31389808  0.00096490  0.36477555     0.13700
H231        H  0.28666247  0.01555652  0.23663158     0.26900
H232        H  0.24300292  0.01122158  0.27053011     0.26900
N233        N  0.20233020  0.21406652  0.02905649    -0.35800
N234        N  0.27241265  0.28323446  0.03669500    -0.56400
N235        N  0.28487167  0.29432906  0.46764977    -0.35800
N236        N  0.21648974  0.22301956  0.46271076    -0.56400
C237        C  0.20717796  0.21494427  0.06087004     0.27800
C238        C  0.17513219  0.17926356  0.02074577     0.27800
C239        C  0.31817971  0.32444547  0.47575922     0.27800
C240        C  0.28624495  0.28659756  0.43661049     0.27800
C241        C  0.25765475  0.28110036  0.06531771     0.36400
C242        C  0.30064403  0.31866814  0.03367083     0.36400
C243        C  0.18394078  0.19063375  0.46539484     0.36400
C244        C  0.22574997  0.22607417  0.43196944     0.36400
C245        C  0.18244594  0.18021362  0.07300830    -0.21100
C246        C  0.16220058  0.15774873  0.04775915    -0.21100
C247        C  0.34053579  0.33659204  0.44933073    -0.21100
C248        C  0.32059729  0.31268418  0.42487032    -0.21100
C249        C  0.27654083  0.31557257  0.08045274    -0.22200
C250        C  0.30401480  0.33933086  0.06044967    -0.22200
C251        C  0.17228028  0.17297188  0.43629854    -0.22200
C252        C  0.19882763  0.19516548  0.41521761    -0.22200
C253        C  0.23062667  0.24740571  0.07911435    -0.17500
C254        C  0.16396357  0.17680499  0.49346357    -0.17500
C255        C  0.25814910  0.25598038  0.41867340    -0.17500
C256        C  0.32971652  0.34128527  0.50626006    -0.17500
H257        H  0.17834290  0.17211392  0.09754951     0.15400
H258        H  0.13984370  0.12909704  0.04933659     0.15400
H259        H  0.36882029  0.35974507  0.44792911     0.15400
H260        H  0.33082163  0.31392276  0.40132119     0.15400
H261        H  0.27156221  0.32283549  0.10367864     0.13700
H262        H  0.32451597  0.36821470  0.06531618     0.13700
H263        H  0.14744395  0.14658603  0.43083979     0.13700
H264        H  0.19832525  0.18858404  0.39049455     0.13700
H265        H  0.21338160  0.23708368  0.01431109     0.26900
H266        H  0.26197626  0.28149028  0.48214516     0.26900
N267        N  0.21639800  0.20931942  0.21926208    -0.35800
N268        N  0.22492753  0.22287843  0.28761892    -0.56400
N269        N  0.29229847  0.29400768  0.27667858    -0.35800
N270        N  0.28502230  0.27868967  0.20866490    -0.56400
C271        C  0.19013437  0.17550950  0.22992569     0.27800
C272        C  0.22059114  0.20567216  0.18799172     0.27800
C273        C  0.29341329  0.29234770  0.30864864     0.27800
C274        C  0.32687760  0.31974097  0.26725800     0.27800
C275        C  0.18961426  0.19365853  0.28611601     0.36400
C276        C  0.22906069  0.23944310  0.31608708     0.36400
C277        C  0.27463995  0.26918661  0.17810304     0.36400
C278        C  0.31671041  0.31227393  0.20861106     0.36400
C279        C  0.17731544  0.15018430  0.20482924    -0.21100
C280        C  0.19642070  0.16920656  0.17851202    -0.21100
C281        C  0.32892870  0.31767380  0.31974417    -0.21100
C282        C  0.35004420  0.33487845  0.29371576    -0.21100
C283        C  0.17138592  0.19139189  0.31390361    -0.22200
C284        C  0.19618039  0.22078912  0.33261975    -0.22200
C285        C  0.30044494  0.29663399  0.15863570    -0.22200
C286        C  0.32685497  0.32405134  0.17792433    -0.22200
C287        C  0.17442375  0.16804826  0.26058600    -0.17500
C288        C  0.24421159  0.23470951  0.16741585    -0.17500
C289        C  0.33800806  0.33133485  0.23572124    -0.17500
C290        C  0.26283002  0.26970420  0.32809571    -0.17500
H291        H  0.15558922  0.12119337  0.20491226     0.15400
H292        H  0.19255169  0.15750624  0.15497839     0.15400
H293        H  0.33868005  0.32324712  0.34405306     0.15400
H294        H  0.37920844  0.35628979  0.29428787     0.15400
H295        H  0.14310940  0.17102648  0.32002645     0.12900
H296        H  0.19054121  0.22787377  0.35566123     0.13700
H297        H  0.30145638  0.29612413  0.13321417     0.13700
H298        H  0.35140252  0.34913598  0.17020855     0.13700
H299        H  0.22726392  0.23428593  0.23162000     0.26900
H300        H  0.26840618  0.28123558  0.26251396     0.26900
C301        C  0.26631509  0.27806147  0.36276578    -0.15600
C302        C  0.26339434  0.25269629  0.38413071    -0.30800
H303        H  0.26985015  0.30462045  0.37058321     0.13400
H304        H  0.25984798  0.22639012  0.37550195     0.14000
C305        C  0.22762136  0.24695801  0.11416367    -0.15600
C306        C  0.23860198  0.22767312  0.13264642    -0.30800
H307        H  0.22175064  0.26711791  0.12512870     0.13400
H308        H  0.24574679  0.20821977  0.12212369     0.14000
C309        C  0.24329342  0.98910592  0.36872947    -0.15600
C310        C  0.23453591  0.01104846  0.38580934    -0.30800
H311        H  0.25564335  0.47898705  0.37822890     0.13400
H312        H  0.22571538  0.02863684  0.37391447     0.14000
C313        C  0.24281574  0.98783097  0.11691378    -0.15600
C314        C  0.27216344  0.00861457  0.13636840    -0.30800
H315        H  0.21379125  0.47177866  0.12596815     0.13400
H316        H  0.29938088  0.02694622  0.12647535     0.14000
C317        C  0.01722547  0.26383040  0.38434408    -0.15600
C318        C  0.99522593  0.23502389  0.36496325    -0.30800
H319        H  0.03700304  0.29037566  0.37395903     0.13400
H320        H  0.47338244  0.20630308  0.36932987     0.14000
C321        C  0.01087386  0.25958825  0.13275568    -0.15600
C322        C  0.98525060  0.26182855  0.11450599    -0.30800
H323        H  0.03166900  0.25504134  0.12148637     0.13400
H324        H  0.46337534  0.26514359  0.12130743     0.14000
N325        N  0.00160805  0.23166734  0.53730471    -0.35800
N326        N  0.99955748  0.30024641  0.53236630    -0.56400
N327        N  0.99620478  0.28489144  0.96095316    -0.35800
N328        N  0.99687213  0.21500992  0.96881765    -0.56400
C329        C  0.99167887  0.23508782  0.56683384     0.27800
C330        C  0.99104621  0.19531773  0.53299175     0.27800
C331        C  0.99499915  0.31693151  0.96209938     0.27800
C332        C  0.00101993  0.27870035  0.93047926     0.27800
C333        C  0.00290381  0.29956703  0.56419304     0.36400
C334        C  0.00309522  0.33365134  0.52520384     0.36400
C335        C  0.49996541  0.18580769  0.97313854     0.36400
C336        C  0.50590129  0.22181953  0.93349151     0.36400
C337        C  0.97439011  0.20060346  0.58131626    -0.21100
C338        C  0.97426525  0.17551665  0.56008790    -0.21100
C339        C  0.99857694  0.33110374  0.93193271    -0.21100
C340        C  0.00262129  0.30726886  0.91208780    -0.21100
C341        C  0.00815311  0.33246178  0.57737673    -0.22200
C342        C  0.00803011  0.35394584  0.55273888    -0.22200
C343        C  0.51172427  0.17350151  0.94765685    -0.22200
C344        C  0.51580401  0.19644796  0.92280482    -0.22200
C345        C  0.99907070  0.26876095  0.58154194    -0.17500
C346        C  0.49320950  0.17787161  0.50216419    -0.17500
C347        C  0.00457101  0.24854854  0.91858187    -0.17500
C348        C  0.00139652  0.34615606  0.49434741    -0.17500
H349        H  0.96272217  0.19414528  0.60468895     0.15400
H350        H  0.96326623  0.14612364  0.56437049     0.15400
H351        H  0.99898113  0.35641723  0.92490741     0.15400
H352        H  0.00697468  0.31125641  0.88698439     0.15400
H353        H  0.01129601  0.34007969  0.60213941     0.13700
H354        H  0.01151912  0.38155242  0.55489471     0.13700
H355        H  0.51665466  0.15025830  0.94669186     0.13700
H356        H  0.52536839  0.19474150  0.89960767     0.13700
H357        H  0.01866104  0.25354488  0.52257270     0.26900
H358        H  0.99401165  0.26832688  0.97988530     0.26900
N359        N  0.01424087  0.21477131  0.71226418    -0.35800
N360        N  0.99993613  0.20077087  0.77970393    -0.56400
N361        N  0.00325355  0.27240360  0.78690679    -0.35800
N362        N  0.01259361  0.28409912  0.71900849    -0.56400
C363        C  0.00821391  0.17950069  0.71366517     0.27800
C364        C  0.01388335  0.22311985  0.68138211     0.27800
C365        C  0.98908477  0.25648203  0.81502768     0.27800
C366        C  0.99674558  0.30114212  0.78328007     0.27800
C367        C  0.00536447  0.17206068  0.77243338     0.36400
C368        C  0.99855775  0.20180577  0.81160042     0.36400
C369        C  0.02156905  0.28676693  0.68812079     0.36400
C370        C  0.01803803  0.31786856  0.72795282     0.36400
C371        C  0.00496605  0.16554592  0.68336750    -0.21100
C372        C  0.00851942  0.19293218  0.66304802    -0.21100
C373        C  0.97306760  0.27509901  0.82922170    -0.21100
C374        C  0.97826069  0.30355777  0.80934204    -0.21100
C375        C  0.00667551  0.15440463  0.79990474    -0.22200
C376        C  0.00249630  0.17329701  0.82463419    -0.22200
C377        C  0.03262935  0.32238714  0.67741044    -0.22200
C378        C  0.03025112  0.34198452  0.70250173    -0.22200
C379        C  0.00702653  0.16000274  0.74142548    -0.17500
C380        C  0.01898865  0.25730065  0.66911810    -0.17500
C381        C  0.00891470  0.32632736  0.75781426    -0.17500
C382        C  0.99219936  0.22708394  0.82908501    -0.17500
H383        H  0.00064703  0.13847563  0.67652499     0.15400
H384        H  0.00760944  0.19066842  0.63761050     0.15400
H385        H  0.95901768  0.26875819  0.85160743     0.15400
H386        H  0.96938165  0.32365937  0.81358303     0.15400
H387        H  0.01000480  0.13019959  0.80200188     0.13700
H388        H  0.00194210  0.16644174  0.84933213     0.13700
H389        H  0.04171968  0.33332675  0.65400178     0.13700
H390        H  0.03641161  0.37063537  0.70188474     0.13700
H391        H  0.02122081  0.23305254  0.73115282     0.26900
H392        H  0.02038556  0.26697495  0.77291772     0.26900
O393        O  0.01374842  0.46603107  0.52291630    -0.87600
C394        C  0.05412830  0.02984461  0.94968843     0.88500
Mg395      Mg  0.45522673  0.42165809  0.51791977     1.58100
O396        O  0.04229886  0.07348332  0.52241451    -0.87300
O397        O  0.05126362  0.00743446  0.55328597    -0.74600
C398        C  0.35695970  0.99621667  0.99202480     0.93500
O399        O  0.98431529  0.44141813  0.94549058    -0.74400
O400        O  0.35505730  0.46675490  0.98770187    -0.81900
Mg401      Mg  0.03730006  0.45957061  0.97564958     1.58000
C402        C  0.99582197  0.14326484  0.50886251     0.93400
O403        O  0.09910339  0.48578368  0.50462287    -0.80200
H404        H  0.05007260  0.08591661  0.56854865    -0.05500
C405        C  0.45740388  0.03166804  0.95083326     0.88400
O406        O  0.43812071  0.45476723  0.55053232    -0.74700
O407        O  0.05321844  0.01588838  0.97567699    -0.87500
O408        O  0.02515749  0.14105002  0.50622192    -0.80300
C409        C  0.12276310  0.13316490  0.98691324     0.93600
C410        C  0.12622251  0.00956257  0.51166161     0.93400
Mg411      Mg  0.44696826  0.05269525  0.51785332     1.58000
O412        O  0.38801770  0.02650434  0.99444589    -0.80200
O413        O  0.49923098  0.07246547  0.54976651    -0.74400
O414        O  0.12138872  0.10204221  0.99073211    -0.80300
O415        O  0.02281922  0.39955448  0.97963191    -0.82000
O416        O  0.36531691  0.40686093  0.50277513    -0.80300
C417        C  0.03132833  0.07742524  0.54827580     0.87900
O418        O  0.43166028  0.49373060  0.52023890    -0.87500
O419        O  0.47338129  0.04581475  0.97622017    -0.87600
O420        O  0.43185541  0.50292852  0.95002835    -0.74600
Mg421      Mg  0.08457613  0.05757768  0.52129760     1.58000
O422        O  0.09350963  0.13558110  0.98365778    -0.82000
H423        H  0.02065200  0.46065923  0.56908548    -0.05700
O424        O  0.44305089  0.43757196  0.97769003    -0.87300
H425        H  0.43278746  0.42727018  0.93139536    -0.05500
H426        H  0.42119532  0.49003007  0.56643018    -0.05700
C427        C  0.45275966  0.43539056  0.95074614     0.87800
C428        C  0.02950204  0.47857181  0.54867191     0.88400
C429        C  0.42960616  0.47992100  0.54644745     0.88500
H430        H  0.46613066  0.04828625  0.92965605    -0.05700
O431        O  0.04674228  0.05598896  0.94664245    -0.74700
Mg432      Mg  0.40014231  0.45191832  0.98211909     1.58000
H433        H  0.06081302  0.01920486  0.92900291    -0.05700
C434        C  0.99246346  0.37034879  0.98626950     0.93400
O435        O  0.39520005  0.37589632  0.51373682    -0.82000
C436        C  0.36542923  0.37678078  0.50842002     0.93500
O437        O  0.12890312  0.04089772  0.51766130    -0.81900
Mg438      Mg  0.03231410  0.09056301  0.98032206     1.58200
O439        O  0.46332177  0.37104320  0.99035097    -0.80300
O440        O  0.46103744  0.11235206  0.51054308    -0.82000
O441        O  0.49217379  0.04126229  0.77168650    -0.87600
C442        C  0.43839738  0.45922119  0.69915740     0.88500
Mg443      Mg  0.04902321  0.08173482  0.77023323     1.58100
O444        O  0.45966248  0.42690447  0.76924229    -0.87300
O445        O  0.44860593  0.49096037  0.80025759    -0.74600
C446        C  0.14007559  0.99298225  0.74071519     0.93500
O447        O  0.50894604  0.04947810  0.69685955    -0.74400
O448        O  0.14169187  0.02411999  0.73689870    -0.81900
Mg449      Mg  0.45926000  0.03353485  0.72924482     1.58000
C450        C  0.00968173  0.36237508  0.76086878     0.93400
O451        O  0.40512152  0.02002618  0.75364638    -0.80200
H452        H  0.45252771  0.41474833  0.81522103    -0.05500
C453        C  0.03626889  0.45583387  0.69918684     0.88400
O454        O  0.06487044  0.04699042  0.80285550    -0.74700
O455        O  0.44177342  0.47338044  0.72550471    -0.87500
O456        O  0.48140619  0.36207622  0.75185457    -0.80300
C457        C  0.37577608  0.35601011  0.73574388     0.93600
C458        C  0.37530948  0.99078897  0.76157085     0.93400
Mg459      Mg  0.05627402  0.45309295  0.76752652     1.58000
O460        O  0.10965306  0.46640421  0.74123080    -0.80200
O461        O  0.00661220  0.43723544  0.80018950    -0.74400
O462        O  0.37647632  0.38684640  0.73926641    -0.80300
O463        O  0.47472792  0.09418283  0.73154071    -0.82000
O464        O  0.13686239  0.09175557  0.75963078    -0.80300
C465        C  0.47130826  0.42414069  0.79552756     0.87900
O466        O  0.06997778  0.00703917  0.77274732    -0.87500
O467        O  0.02295754  0.44522886  0.72558504    -0.87600
O468        O  0.06314670  0.98945097  0.69781469    -0.74600
Mg469      Mg  0.41588872  0.44050726  0.76688359     1.58000
O470        O  0.40535018  0.35457262  0.73157860    -0.82000
H471        H  0.49018631  0.05132721  0.81759132    -0.05700
O472        O  0.05416383  0.05489584  0.72857958    -0.87300
H473        H  0.06233093  0.06683825  0.68262383    -0.05500
H474        H  0.07965871  0.01009724  0.81937114    -0.05700
C475        C  0.04332943  0.05823993  0.70214131     0.87800
C476        C  0.47927009  0.03136323  0.79830493     0.88400
C477        C  0.07207840  0.02085953  0.79905823     0.88500
H478        H  0.02564031  0.43638389  0.67952875    -0.05700
O479        O  0.44639271  0.43376374  0.69474898    -0.74700
Mg480      Mg  0.09671742  0.03937346  0.73164191     1.58000
H481        H  0.42901653  0.46909274  0.67937422    -0.05700
C482        C  0.00592317  0.12383145  0.73851657     0.93400
O483        O  0.10975217  0.12592760  0.76603665    -0.82000
C484        C  0.13859883  0.12305851  0.76267036     0.93500
O485        O  0.36946149  0.45397278  0.76315513    -0.81900
Mg486      Mg  0.46554260  0.40146285  0.72697724     1.58200
O487        O  0.03563403  0.12289168  0.74468823    -0.80300
O488        O  0.04095665  0.39217472  0.76461557    -0.82000
N489        N  0.28108995  0.00563337  0.53347013    -0.35800
N490        N  0.20947935  0.00252460  0.53927382    -0.56400
N491        N  0.20520420  0.00280337  0.96809944    -0.35800
N492        N  0.27320728  0.99983626  0.96364974    -0.56400
C493        C  0.27355708  0.99488756  0.56399781     0.27800
C494        C  0.30855593  0.99918998  0.52419886     0.27800
C495        C  0.17033422  0.99467850  0.97555198     0.27800
C496        C  0.20503258  0.99608882  0.93674570     0.27800
C497        C  0.21644384  0.00042733  0.57030251     0.36400
C498        C  0.17877870  0.00613471  0.53759713     0.36400
C499        C  0.30873067  0.00743894  0.96754784     0.36400
C500        C  0.27028305  0.00982757  0.93385904     0.36400
C501        C  0.29703817  0.98210015  0.57437261    -0.21100
C502        C  0.31918904  0.98498948  0.54941662    -0.21100
C503        C  0.14788616  0.98320465  0.94844117    -0.21100
C504        C  0.16973977  0.98387781  0.92403068    -0.21100
C505        C  0.18931410  0.00174474  0.58821862    -0.22200
C506        C  0.16570335  0.00556673  0.56756848    -0.22200
C507        C  0.32856692  0.02244676  0.94020296    -0.22200
C508        C  0.30426984  0.02451154  0.91899444    -0.22200
C509        C  0.24606737  0.99613554  0.58281389    -0.17500
C510        C  0.32579351  0.00782543  0.49423247    -0.17500
C511        C  0.23641585  0.00252776  0.91919602    -0.17500
C512        C  0.16066692  0.00731931  0.50944000    -0.17500
H513        H  0.29776789  0.97113376  0.59737642     0.15400
H514        H  0.34061392  0.97733585  0.54985624     0.15400
H515        H  0.11882282  0.97540998  0.94623248     0.15400
H516        H  0.16073749  0.97668700  0.89964061     0.15400
H517        H  0.18612172  0.99951558  0.61350191     0.13700
H518        H  0.14118141  0.00687683  0.57390551     0.13700
H519        H  0.35741342  0.03088218  0.93594994     0.13700
H520        H  0.31077125  0.03548348  0.89532438     0.13700
H521        H  0.27063899  0.01981755  0.52062846     0.26900
H522        H  0.22859274  0.01611054  0.98284121     0.26900
N523        N  0.29992405  0.00090232  0.72126067    -0.35800
N524        N  0.22872107  0.99830723  0.71432325    -0.56400
N525        N  0.21865101  0.98858649  0.78222552    -0.35800
N526        N  0.28737643  0.98641992  0.78885234    -0.56400
C527        C  0.29565930  0.99890926  0.68938397     0.27800
C528        C  0.32596377  0.99144457  0.72865166     0.27800
C529        C  0.18419280  0.98119458  0.77262687     0.27800
C530        C  0.21637422  0.97780578  0.81272330     0.27800
C531        C  0.24376525  0.01233315  0.68600627     0.36400
C532        C  0.20003696  0.00472606  0.71766313     0.36400
C533        C  0.32203200  0.99106907  0.78738549     0.36400
C534        C  0.28024423  0.98672880  0.81985836     0.36400
C535        C  0.31956654  0.98850407  0.67633397    -0.21100
C536        C  0.33870221  0.98380476  0.70107809    -0.21100
C537        C  0.15982868  0.96561268  0.79759330    -0.21100
C538        C  0.18008290  0.96340706  0.82273125    -0.21100
C539        C  0.22491866  0.02815178  0.67149334    -0.22200
C540        C  0.19674781  0.02273385  0.69124567    -0.22200
C541        C  0.33675971  0.99364323  0.81742121    -0.22200
C542        C  0.31034736  0.99086481  0.83799146    -0.22200
C543        C  0.27181657  0.00768959  0.67182717    -0.17500
C544        C  0.34001708  0.99137174  0.75938458    -0.17500
C545        C  0.24648357  0.98187817  0.83209803    -0.17500
C546        C  0.17540315  0.99209719  0.74329525    -0.17500
H547        H  0.32308703  0.98487919  0.65157996     0.15400
H548        H  0.35975068  0.97579663  0.69895938     0.15400
H549        H  0.13063844  0.95742002  0.79821297     0.15400
H550        H  0.16926199  0.95256423  0.84582603     0.15400
H551        H  0.23081004  0.04200647  0.64891719     0.13700
H552        H  0.17631546  0.03112957  0.68647897     0.13700
H553        H  0.36361486  0.99687751  0.82386774     0.13700
H554        H  0.31304780  0.99110539  0.86339007     0.13700
H555        H  0.28870039  0.01188865  0.73675140     0.26900
H556        H  0.24320017  0.00437612  0.77011721     0.26900
N557        N  0.21159746  0.22063262  0.53210766    -0.35800
N558        N  0.27938951  0.29242769  0.53719176    -0.56400
N559        N  0.28402991  0.28396621  0.96934463    -0.35800
N560        N  0.21421013  0.21404635  0.96177601    -0.56400
C561        C  0.21199010  0.22692636  0.56362789     0.27800
C562        C  0.17685994  0.19278649  0.52405127     0.27800
C563        C  0.31821500  0.31041368  0.97988674     0.27800
C564        C  0.28812405  0.27308528  0.94026208     0.27800
C565        C  0.27300649  0.28642276  0.56842508     0.36400
C566        C  0.31116855  0.32556601  0.53462877     0.36400
C567        C  0.17782557  0.18734478  0.96247551     0.36400
C568        C  0.22231757  0.22349423  0.93120042     0.36400
C569        C  0.17739284  0.20228483  0.57580051    -0.21100
C570        C  0.15526519  0.18087247  0.55094628    -0.21100
C571        C  0.34431704  0.31681028  0.95693974    -0.21100
C572        C  0.32532807  0.29309947  0.93201153    -0.21100
C573        C  0.30085088  0.31610414  0.58568048    -0.22200
C574        C  0.32480564  0.34095444  0.56428684    -0.22200
C575        C  0.16260528  0.17966231  0.93219030    -0.22200
C576        C  0.19078423  0.20278075  0.91236740    -0.22200
C577        C  0.24212708  0.25504943  0.58175103    -0.17500
C578        C  0.15952055  0.16773651  0.98986096    -0.17500
C579        C  0.25868165  0.24769788  0.92020453    -0.17500
C580        C  0.32559412  0.33098677  0.00843956    -0.17500
H581        H  0.16856924  0.20062562  0.59993493     0.15400
H582        H  0.12634214  0.15913761  0.55253299     0.15400
H583        H  0.37388959  0.33685841  0.95773465     0.15400
H584        H  0.33742529  0.29144283  0.91003057     0.15400
H585        H  0.30374896  0.31988169  0.61103412     0.13700
H586        H  0.34988067  0.36703124  0.57000996     0.13700
H587        H  0.13432753  0.15934126  0.92510620     0.13700
H588        H  0.18813723  0.20436012  0.88708551     0.13700
H589        H  0.23446787  0.23251487  0.51747296     0.26900
H590        H  0.25884198  0.27702655  0.97980607     0.26900
N591        N  0.21882153  0.19850630  0.71879131    -0.35800
N592        N  0.22623220  0.20949708  0.78697068    -0.56400
N593        N  0.29579795  0.27868991  0.77892617    -0.35800
N594        N  0.28755509  0.26910393  0.71068737    -0.56400
C595        C  0.18454754  0.17193380  0.72804350     0.27800
C596        C  0.21639500  0.20372894  0.68745410     0.27800
C597        C  0.28829215  0.28215651  0.80944359     0.27800
C598        C  0.32249270  0.31277406  0.76911109     0.27800
C599        C  0.19779000  0.17391257  0.78566457     0.36400
C600        C  0.23808735  0.21651729  0.81738421     0.36400
C601        C  0.28108354  0.25651195  0.68051511     0.36400
C602        C  0.32326940  0.29745587  0.71233044     0.36400
C603        C  0.16030756  0.15950263  0.70210311    -0.21100
C604        C  0.18038756  0.17960760  0.67654122    -0.21100
C605        C  0.31094221  0.31882803  0.81928990    -0.21100
C606        C  0.33268845  0.33802654  0.79405222    -0.21100
C607        C  0.19154361  0.15791092  0.81518736    -0.22200
C608        C  0.21715236  0.18477664  0.83528068    -0.22200
C609        C  0.31288293  0.27693383  0.66289434    -0.22200
C610        C  0.33960257  0.30297551  0.68302990    -0.22200
C611        C  0.17502626  0.15718793  0.75886309    -0.17500
C612        C  0.24608816  0.22864243  0.66822888    -0.17500
C613        C  0.33961580  0.32084780  0.73901620    -0.17500
C614        C  0.26376526  0.25254068  0.82928353    -0.17500
H615        H  0.13116107  0.13804798  0.70155696     0.15400
H616        H  0.16965720  0.17659654  0.65262041     0.15400
H617        H  0.31248889  0.33044274  0.84252851     0.15400
H618        H  0.35387020  0.36722795  0.79443310     0.15400
H619        H  0.17031162  0.13003807  0.82168299     0.12900
H620        H  0.21941878  0.18074840  0.86016944     0.13700
H621        H  0.31636202  0.27361810  0.63805476     0.13700
H622        H  0.36749062  0.32408673  0.67659429     0.13700
H623        H  0.24315217  0.20969153  0.73240101     0.26900
H624        H  0.28645036  0.25383656  0.76659177     0.26900
C625        C  0.26119259  0.26106808  0.86310279    -0.15600
C626        C  0.26716144  0.24337535  0.88704424    -0.30800
H627        H  0.25291585  0.28155116  0.86826921     0.13400
H628        H  0.27693978  0.22398640  0.88230284     0.14000
C629        C  0.24057263  0.25374141  0.61691250    -0.15600
C630        C  0.23996897  0.22571370  0.63334722    -0.30800
H631        H  0.24479106  0.27837105  0.62964786     0.13400
H632        H  0.23587529  0.20081359  0.62120543     0.14000
C633        C  0.24250184  0.97922111  0.86710862    -0.15600
C634        C  0.23350685  0.00103556  0.88398359    -0.30800
H635        H  0.24719131  0.45875933  0.87633084     0.13400
H636        H  0.22441976  0.01836139  0.87198938     0.14000
C637        C  0.24600047  0.98994874  0.61755768    -0.15600
C638        C  0.27546390  0.01092062  0.63678996    -0.30800
H639        H  0.21592532  0.46589302  0.62302089     0.13400
H640        H  0.30223043  0.03079453  0.62695821     0.14000
C641        C  0.01132112  0.24908711  0.88399485    -0.15600
C642        C  0.98762235  0.22208095  0.86394792    -0.30800
H643        H  0.03404279  0.27448213  0.87425655     0.13400
H644        H  0.47058089  0.19670990  0.86927510     0.14000
C645        C  0.02174617  0.26170038  0.63407637    -0.15600
C646        C  0.99969694  0.27047286  0.61676023    -0.30800
H647        H  0.03960647  0.25372590  0.62187482     0.13400
H648        H  0.47728242  0.27873112  0.62399115     0.14000
N649        N  0.98962107  0.71755290  0.03685299    -0.35800
N650        N  0.99037502  0.78708634  0.02985066    -0.56400
N651        N  0.00180780  0.79658705  0.46267975    -0.35800
N652        N  0.99976044  0.72546369  0.46838143    -0.56400
C653        C  0.99779089  0.73051004  0.06697018     0.27800
C654        C  0.99745426  0.68972384  0.03444741     0.27800
C655        C  0.99494962  0.82523437  0.46424408     0.27800
C656        C  0.00238672  0.78873698  0.43174969     0.27800
C657        C  0.98374231  0.78185022  0.06125481     0.36400
C658        C  0.98418929  0.81496567  0.02105548     0.36400
C659        C  0.50598332  0.69635606  0.47811850     0.36400
C660        C  0.51153838  0.73299408  0.43926195     0.36400
C661        C  0.01126503  0.71063387  0.08355282    -0.21100
C662        C  0.01069816  0.68472070  0.06310732    -0.21100
C663        C  0.99180626  0.83625871  0.43405477    -0.21100
C664        C  0.99664430  0.81343391  0.41359339    -0.21100
C665        C  0.97373262  0.80683340  0.07263458    -0.22200
C666        C  0.97414612  0.82785373  0.04733891    -0.22200
C667        C  0.51906327  0.68550890  0.45258801    -0.22200
C668        C  0.52307692  0.70901416  0.42822911    -0.22200
C669        C  0.98996925  0.75720459  0.08020445    -0.17500
C670        C  0.49338832  0.66768586  0.01045306    -0.17500
C671        C  0.00914382  0.76086037  0.41936636    -0.17500
C672        C  0.99127833  0.83151813  0.99055594    -0.17500
H673        H  0.02097216  0.71412976  0.10772961     0.15400
H674        H  0.01931518  0.66462805  0.06867683     0.15400
H675        H  0.98697020  0.85873073  0.42740678     0.15400
H676        H  0.99663746  0.81560665  0.38821871     0.15400
H677        H  0.96784862  0.81035934  0.09680088     0.13700
H678        H  0.96863631  0.85070575  0.04860655     0.13700
H679        H  0.52506373  0.66298311  0.45135681     0.13700
H680        H  0.53339860  0.70841935  0.40507775     0.13700
H681        H  0.97509423  0.72381094  0.02001600     0.26900
H682        H  0.00907793  0.78541482  0.48150987     0.26900
N683        N  0.00422901  0.71791414  0.21306299    -0.35800
N684        N  0.99836681  0.70673304  0.28083419    -0.56400
N685        N  0.00207496  0.77783946  0.28857926    -0.35800
N686        N  0.00606041  0.78809970  0.22085912    -0.56400
C687        C  0.99437236  0.68151476  0.21484847     0.27800
C688        C  0.99695366  0.72423227  0.18313154     0.27800
C689        C  0.98844182  0.76143802  0.31659238     0.27800
C690        C  0.99379711  0.80535025  0.28521180     0.27800
C691        C  0.00516413  0.67926293  0.27248860     0.36400
C692        C  0.00206573  0.71003096  0.31265382     0.36400
C693        C  0.01469010  0.79052897  0.18995887     0.36400
C694        C  0.01488384  0.82273378  0.23040644     0.36400
C695        C  0.98055171  0.66435629  0.18577575    -0.21100
C696        C  0.98177343  0.69123384  0.16586176    -0.21100
C697        C  0.97031924  0.77795715  0.33072932    -0.21100
C698        C  0.97423050  0.80619081  0.31111274    -0.21100
C699        C  0.01286123  0.66478278  0.29931438    -0.22200
C700        C  0.01099074  0.68438491  0.32474387    -0.22200
C701        C  0.02875681  0.82680015  0.17965655    -0.22200
C702        C  0.02886846  0.84724946  0.20529534    -0.22200
C703        C  0.00041190  0.66454650  0.24144952    -0.17500
C704        C  0.00715634  0.75973134  0.17058561    -0.17500
C705        C  0.00626354  0.83120342  0.26037711    -0.17500
C706        C  0.99509317  0.73438043  0.33076619    -0.17500
H707        H  0.97071273  0.63555029  0.17947951     0.15400
H708        H  0.97226608  0.68677065  0.14152331     0.15400
H709        H  0.95595435  0.77047482  0.35296754     0.15400
H710        H  0.96398827  0.82517875  0.31546707     0.15400
H711        H  0.01832606  0.64187362  0.30062025     0.13700
H712        H  0.01500999  0.67976680  0.34929110     0.13700
H713        H  0.03720607  0.83723141  0.15600220     0.13700
H714        H  0.03727141  0.87654833  0.20517885     0.13700
H715        H  0.01960732  0.73822645  0.23010853     0.26900
H716        H  0.02030475  0.77389205  0.27461583     0.26900
O717        O  0.00900554  0.95307853  0.02051024    -0.87600
C718        C  0.05959298  0.54172422  0.45057089     0.88500
Mg719      Mg  0.45147145  0.91062463  0.02271521     1.58100
O720        O  0.03951686  0.56488702  0.01932485    -0.87300
O721        O  0.05147072  0.50079947  0.04853312    -0.74600
C722        C  0.36112943  0.50719825  0.48807948     0.93500
O723        O  0.98953070  0.95262785  0.44773800    -0.74400
O724        O  0.35870041  0.97512457  0.48814992    -0.81900
Mg725      Mg  0.04085086  0.96845813  0.47959932     1.58000
C726        C  0.99013717  0.63166833  0.01122987     0.93400
O727        O  0.09345989  0.97180077  0.00198024    -0.80200
H728        H  0.04991035  0.57657662  0.06545277    -0.05500
C729        C  0.46290712  0.54550402  0.44998146     0.88400
O730        O  0.43688040  0.94645978  0.05474132    -0.74700
O731        O  0.05791979  0.52831257  0.47694445    -0.87500
O732        O  0.01976300  0.63056805  0.00662575    -0.80300
C733        C  0.12494915  0.64583939  0.48668909     0.93600
C734        C  0.12400082  0.50323276  0.00386097     0.93400
Mg735      Mg  0.44381981  0.54167928  0.02315225     1.58000
O736        O  0.39189533  0.53736196  0.49257542    -0.80200
O737        O  0.49636065  0.55854861  0.05410923    -0.74400
O738        O  0.12478633  0.61533774  0.49082538    -0.80300
O739        O  0.02412581  0.90780068  0.48243630    -0.82000
O740        O  0.36096405  0.89592964  0.01199198    -0.80300
C741        C  0.02988201  0.56787644  0.04609435     0.87900
O742        O  0.42959639  0.98448791  0.02367136    -0.87500
O743        O  0.47767054  0.55685095  0.47623385    -0.87600
O744        O  0.43530388  0.00802611  0.44790633    -0.74600
Mg745      Mg  0.08211033  0.55017493  0.01472394     1.58000
O746        O  0.09506542  0.64699932  0.48302570    -0.82000
H747        H  0.01507197  0.94642438  0.06657182    -0.05700
O748        O  0.44644575  0.94462392  0.48066951    -0.87300
H749        H  0.43584788  0.93031913  0.43499576    -0.05500
H750        H  0.42241125  0.98378172  0.07031123    -0.05700
C751        C  0.45601306  0.94032105  0.45429758     0.87800
C752        C  0.02435251  0.96488698  0.04651664     0.88400
C753        C  0.42909254  0.97213746  0.05030534     0.88500
H754        H  0.47263692  0.56427254  0.43013980    -0.05700
O755        O  0.05139379  0.56713111  0.44632983    -0.74700
Mg756      Mg  0.40376647  0.95982606  0.48299673     1.58000
H757        H  0.06758468  0.53118903  0.43060924    -0.05700
C758        C  0.99380745  0.87879560  0.48952856     0.93400
O759        O  0.39093254  0.86474214  0.02132117    -0.82000
C760        C  0.36095595  0.86563145  0.01726804     0.93500
O761        O  0.12662471  0.53470614  0.00865458    -0.81900
Mg762      Mg  0.03464926  0.60046547  0.47919838     1.58200
O763        O  0.46849162  0.87979965  0.50154825    -0.80300
O764        O  0.45965569  0.60237729  0.01856423    -0.82000
O765        O  0.49077703  0.54481375  0.26963088    -0.87600
C766        C  0.43908299  0.96470418  0.20473027     0.88500
Mg767      Mg  0.04543036  0.58932378  0.26826192     1.58100
O768        O  0.46211412  0.93639939  0.27631146    -0.87300
O769        O  0.45371076  0.00364123  0.30473998    -0.74600
C770        C  0.14321307  0.50741683  0.23868644     0.93500
O771        O  0.50832126  0.55910737  0.19503126    -0.74400
O772        O  0.14379898  0.53807090  0.23440798    -0.81900
Mg773      Mg  0.45819553  0.54051086  0.22766802     1.58000
C774        C  0.00809760  0.86752656  0.26439522     0.93400
O775        O  0.40406090  0.52553706  0.25302315    -0.80200
H776        H  0.45731754  0.92728959  0.32284470    -0.05500
C777        C  0.03670875  0.96313401  0.20480257     0.88400
O778        O  0.06426024  0.55699148  0.30099132    -0.74700
O779        O  0.44326173  0.98033409  0.23051182    -0.87500
O780        O  0.48048090  0.86915554  0.26277383    -0.80300
C781        C  0.37649169  0.86474651  0.24487386     0.93600
C782        C  0.37382505  0.49569149  0.25893093     0.93400
Mg783      Mg  0.05595706  0.95763867  0.27257211     1.58000
O784        O  0.10917641  0.97074987  0.24565445    -0.80200
O785        O  0.00613161  0.94182302  0.30524897    -0.74400
O786        O  0.37783915  0.89541281  0.25112542    -0.80300
O787        O  0.47322361  0.60088169  0.23364167    -0.82000
O788        O  0.13521591  0.60519701  0.25605345    -0.80300
C789        C  0.47493831  0.93484377  0.30242939     0.87900
O790        O  0.07140498  0.51819972  0.27097683    -0.87500
O791        O  0.02296712  0.95170915  0.23097267    -0.87600
O792        O  0.06467660  0.49978809  0.19610115    -0.74600
Mg793      Mg  0.41914205  0.95124021  0.27415911     1.58000
O794        O  0.40547601  0.86258405  0.23982567    -0.82000
H795        H  0.48854965  0.54996023  0.31636832    -0.05700
O796        O  0.05168097  0.56309391  0.22659926    -0.87300
H797        H  0.05881459  0.57484996  0.18054963    -0.05500
H798        H  0.08206945  0.52241890  0.31749056    -0.05700
C799        C  0.04014443  0.56596181  0.20031100     0.87800
C800        C  0.47763478  0.53211090  0.29571034     0.88400
C801        C  0.07323803  0.53209862  0.29721251     0.88500
H802        H  0.02594229  0.94446347  0.18463541    -0.05700
O803        O  0.44688166  0.93898448  0.20124627    -0.74700
Mg804      Mg  0.09657320  0.55068067  0.22934167     1.58000
H805        H  0.42941881  0.97371467  0.18454604    -0.05700
C806        C  0.99977132  0.62876230  0.23767736     0.93400
O807        O  0.10451896  0.63567802  0.26358798    -0.82000
C808        C  0.13461762  0.63535928  0.25977038     0.93500
O809        O  0.37342808  0.96615992  0.27031212    -0.81900
Mg810      Mg  0.46570276  0.90782402  0.23495309     1.58200
O811        O  0.03005372  0.62846577  0.24212250    -0.80300
O812        O  0.03980751  0.89681506  0.26769745    -0.82000
N813        N  0.27675807  0.49912287  0.03170017    -0.35800
N814        N  0.20646655  0.49794583  0.03475150    -0.56400
N815        N  0.21129394  0.51911293  0.46756504    -0.35800
N816        N  0.27815228  0.51352088  0.46142851    -0.56400
C817        C  0.26774489  0.48879484  0.06216274     0.27800
C818        C  0.30323374  0.49071354  0.02373390     0.27800
C819        C  0.17727470  0.51354794  0.47508167     0.27800
C820        C  0.21191782  0.51601954  0.43570248     0.27800
C821        C  0.21374650  0.49924709  0.06609188     0.36400
C822        C  0.17714745  0.50352969  0.03145946     0.36400
C823        C  0.31322921  0.51963547  0.46481420     0.36400
C824        C  0.27582885  0.52538195  0.43225426     0.36400
C825        C  0.28888165  0.47380148  0.07364290    -0.21100
C826        C  0.31144102  0.47525628  0.04952766    -0.21100
C827        C  0.15639563  0.50793341  0.44752290    -0.21100
C828        C  0.17810977  0.50916686  0.42275991    -0.21100
C829        C  0.18843034  0.50503853  0.08266229    -0.22200
C830        C  0.16545662  0.50797427  0.06075505    -0.22200
C831        C  0.33333837  0.53547780  0.43776222    -0.22200
C832        C  0.30971136  0.53957774  0.41727032    -0.22200
C833        C  0.24146411  0.49315455  0.08004619    -0.17500
C834        C  0.32183219  0.49881706  0.99448942    -0.17500
C835        C  0.24264357  0.52056278  0.41799643    -0.17500
C836        C  0.15833407  0.50097246  0.00276217    -0.17500
H837        H  0.28794484  0.46259788  0.09689037     0.15400
H838        H  0.33154497  0.46588013  0.05085706     0.15400
H839        H  0.12825329  0.50311597  0.44538765     0.15400
H840        H  0.16992871  0.50568118  0.39804287     0.15400
H841        H  0.18576473  0.50598566  0.10789031     0.13700
H842        H  0.14199196  0.51163439  0.06593958     0.13700
H843        H  0.36192938  0.54313638  0.43322695     0.13700
H844        H  0.31662176  0.55171623  0.39400435     0.13700
H845        H  0.26836489  0.51460352  0.01812468     0.26900
H846        H  0.23378851  0.52787138  0.48308908     0.26900
N847        N  0.29728734  0.50390071  0.21876153    -0.35800
N848        N  0.22853283  0.50642481  0.21224445    -0.56400
N849        N  0.22275364  0.50490439  0.28078375    -0.35800
N850        N  0.28915924  0.49793024  0.28706495    -0.56400
C851        C  0.29101595  0.49872318  0.18717293     0.27800
C852        C  0.32271419  0.49377698  0.22667428     0.27800
C853        C  0.18856679  0.49882889  0.27177957     0.27800
C854        C  0.22114554  0.49586975  0.31171706     0.27800
C855        C  0.24199162  0.51632402  0.18282158     0.36400
C856        C  0.20196276  0.51597685  0.21527431     0.36400
C857        C  0.32296046  0.50053473  0.28517226     0.36400
C858        C  0.28370954  0.50119553  0.31801722     0.36400
C859        C  0.31286038  0.48531704  0.17482697    -0.21100
C860        C  0.33294507  0.48231586  0.19969588    -0.21100
C861        C  0.16518376  0.48625020  0.29757948    -0.21100
C862        C  0.18562077  0.48418089  0.32259366    -0.21100
C863        C  0.22435412  0.53283481  0.16733271    -0.22200
C864        C  0.19843332  0.53195942  0.18766063    -0.22200
C865        C  0.33888297  0.50492499  0.31494120    -0.22200
C866        C  0.31403262  0.50520517  0.33575167    -0.22200
C867        C  0.26781405  0.50790080  0.16903465    -0.17500
C868        C  0.33868163  0.49673454  0.25715624    -0.17500
C869        C  0.25112341  0.49887298  0.33066583    -0.17500
C870        C  0.17897204  0.50742680  0.24176466    -0.17500
H871        H  0.31462800  0.47887082  0.15039553     0.15400
H872        H  0.35304277  0.47300640  0.19802488     0.15400
H873        H  0.13646568  0.47967283  0.29866894     0.15400
H874        H  0.17533414  0.47502072  0.34613601     0.15400
H875        H  0.22985749  0.54455341  0.14390419     0.13700
H876        H  0.17941076  0.54210259  0.18265851     0.13700
H877        H  0.36533924  0.50704349  0.32108454     0.13700
H878        H  0.31785272  0.50737437  0.36108216     0.13700
H879        H  0.28809847  0.51764720  0.23340206     0.26900
H880        H  0.24687125  0.51835953  0.26762448     0.26900
N881        N  0.20064674  0.71149865  0.03023838    -0.35800
N882        N  0.27297402  0.77860132  0.04083325    -0.56400
N883        N  0.28794703  0.79593637  0.47199010    -0.35800
N884        N  0.21493919  0.72965732  0.46201486    -0.56400
C885        C  0.20516463  0.70925907  0.06177868     0.27800
C886        C  0.17291094  0.67769536  0.02015660     0.27800
C887        C  0.31589208  0.83010602  0.48108746     0.27800
C888        C  0.28491291  0.79586679  0.44008050     0.27800
C889        C  0.25950521  0.77317709  0.07040799     0.36400
C890        C  0.30220291  0.81390059  0.04006357     0.36400
C891        C  0.18356811  0.69587281  0.46311132     0.36400
C892        C  0.22803941  0.73324150  0.43243490     0.36400
C893        C  0.17972440  0.67375491  0.07197533    -0.21100
C894        C  0.15932763  0.65387679  0.04580039    -0.21100
C895        C  0.33106397  0.85177430  0.45440778    -0.21100
C896        C  0.31156472  0.83019123  0.42864612    -0.21100
C897        C  0.28022971  0.80527551  0.08842327    -0.22200
C898        C  0.30761119  0.83095054  0.06930397    -0.22200
C899        C  0.17612885  0.67826999  0.43392270    -0.22200
C900        C  0.20447307  0.70182579  0.41453815    -0.22200
C901        C  0.23024353  0.73893695  0.08182918    -0.17500
C902        C  0.16099875  0.68117569  0.48986022    -0.17500
C903        C  0.25994235  0.76515371  0.42088609    -0.17500
C904        C  0.32964202  0.84180097  0.51247012    -0.17500
H905        H  0.17587149  0.66333370  0.09586477     0.15400
H906        H  0.13666960  0.62526287  0.04588462     0.15400
H907        H  0.35409840  0.88015403  0.45341802     0.15400
H908        H  0.31645501  0.83891009  0.40428271     0.15400
H909        H  0.27574197  0.80985415  0.11270256     0.13700
H910        H  0.32887500  0.85895621  0.07606360     0.13700
H911        H  0.15292901  0.65115980  0.42737029     0.13700
H912        H  0.20743347  0.69634659  0.39009415     0.13700
H913        H  0.21280403  0.73577333  0.01707628     0.26900
H914        H  0.27452565  0.77271164  0.48622524     0.26900
N915        N  0.21713488  0.71323847  0.21901004    -0.35800
N916        N  0.21687897  0.72557792  0.28726871    -0.56400
N917        N  0.28831631  0.79315271  0.28250336    -0.35800
N918        N  0.29045855  0.77895518  0.21486598    -0.56400
C919        C  0.18792457  0.67994362  0.22751195     0.27800
C920        C  0.22425877  0.71060277  0.18824611     0.27800
C921        C  0.28487595  0.79064051  0.31434442     0.27800
C922        C  0.32435171  0.81804055  0.27633652     0.27800
C923        C  0.18235863  0.69561581  0.28371113     0.36400
C924        C  0.21845823  0.73997315  0.31625621     0.36400
C925        C  0.28443051  0.77081994  0.18366877     0.36400
C926        C  0.32283846  0.81175516  0.21747470     0.36400
C927        C  0.17594636  0.65610581  0.20139299    -0.21100
C928        C  0.19875630  0.67543555  0.17676271    -0.21100
C929        C  0.31912494  0.81469292  0.32851670    -0.21100
C930        C  0.34399130  0.83182175  0.30461978    -0.21100
C931        C  0.16199929  0.69064908  0.31078494    -0.22200
C932        C  0.18469482  0.71896802  0.33121981    -0.22200
C933        C  0.31380070  0.79815940  0.16663787    -0.22200
C934        C  0.33792050  0.82413815  0.18800268    -0.22200
C935        C  0.16986459  0.67131397  0.25725984    -0.17500
C936        C  0.25325875  0.73891653  0.17020340    -0.17500
C937        C  0.33985998  0.83026799  0.24606180    -0.17500
C938        C  0.25116368  0.76893647  0.33074671    -0.17500
H939        H  0.15273587  0.62783363  0.19980758     0.15400
H940        H  0.19698285  0.66458863  0.15316865     0.15400
H941        H  0.32575431  0.81982053  0.35342638     0.15400
H942        H  0.37323596  0.85239793  0.30777204     0.15400
H943        H  0.13390252  0.66874860  0.31566613     0.12900
H944        H  0.17740164  0.72285930  0.35476985     0.13700
H945        H  0.31809458  0.79925303  0.14149414     0.13700
H946        H  0.36382697  0.84909543  0.18244110     0.13700
H947        H  0.22917674  0.73746784  0.23246478     0.26900
H948        H  0.26657063  0.78209598  0.26600056     0.26900
C949        C  0.24964611  0.77540068  0.36515191    -0.15600
C950        C  0.26773715  0.76622117  0.38665980    -0.30800
H951        H  0.22945467  0.78293178  0.37307352     0.13400
H952        H  0.28649510  0.75667578  0.37910520     0.14000
C953        C  0.22565683  0.73385506  0.11666627    -0.15600
C954        C  0.25276498  0.73477466  0.13517703    -0.30800
H955        H  0.20052355  0.73085434  0.12709640     0.13400
H956        H  0.27771532  0.73805053  0.12412240     0.14000
C957        C  0.24784061  0.49705244  0.36574573    -0.15600
C958        C  0.23990289  0.51963372  0.38274720    -0.30800
H959        H  0.25184771  0.97163477  0.38122806     0.13400
H960        H  0.23177754  0.53777300  0.37086668     0.14000
C961        C  0.24070273  0.48889467  0.11509065    -0.15600
C962        C  0.27085060  0.50872050  0.13392402    -0.30800
H963        H  0.21590983  0.96951287  0.12735866     0.13400
H964        H  0.29809635  0.52583723  0.12363221     0.14000
C965        C  0.01419585  0.76107443  0.38453263    -0.15600
C966        C  0.99377208  0.73103693  0.36584349    -0.30800
H967        H  0.03218938  0.78778360  0.37350258     0.13400
H968        H  0.47671600  0.70438829  0.37695807     0.14000
C969        C  0.01321593  0.76541625  0.13596728    -0.15600
C970        C  0.98522769  0.75727329  0.11518537    -0.30800
H971        H  0.04110052  0.77475504  0.12745821     0.13400
H972        H  0.46594602  0.75238275  0.12659297     0.14000
N973        N  0.98941889  0.72677891  0.53584658    -0.35800
N974        N  0.98665210  0.79522034  0.53003589    -0.56400
N975        N  0.99386054  0.78150790  0.96088271    -0.35800
N976        N  0.99404608  0.71236473  0.96805512    -0.56400
C977        C  0.97604842  0.72898595  0.56415980     0.27800
C978        C  0.98055904  0.69085636  0.53161526     0.27800
C979        C  0.99978057  0.81665816  0.96382931     0.27800
C980        C  0.00398477  0.77781990  0.93133509     0.27800
C981        C  0.98843008  0.79383609  0.56190842     0.36400
C982        C  0.99264361  0.82956745  0.52296240     0.36400
C983        C  0.49003191  0.67833796  0.97932491     0.36400
C984        C  0.49319076  0.71224811  0.93897049     0.36400
C985        C  0.95795795  0.69410130  0.57787788    -0.21100
C986        C  0.96109527  0.67003350  0.55751230    -0.21100
C987        C  0.01303231  0.83532209  0.93561655    -0.21100
C988        C  0.01575939  0.81102030  0.91523961    -0.21100
C989        C  0.99499527  0.82715248  0.57520572    -0.22200
C990        C  0.99746413  0.84974029  0.55055750    -0.22200
C991        C  0.48556327  0.65719926  0.95253930    -0.22200
C992        C  0.48819766  0.67882040  0.92710283    -0.22200
C993        C  0.98265863  0.76228194  0.57907529    -0.17500
C994        C  0.49578001  0.67780105  0.50757037    -0.17500
C995        C  0.00095389  0.74484551  0.91784940    -0.17500
C996        C  0.99325149  0.84299227  0.49207466    -0.17500
H997        H  0.94414774  0.68687872  0.60037976     0.15400
H998        H  0.95067833  0.64074365  0.56175951     0.15400
H999        H  0.01961195  0.86340140  0.92993039     0.15400
H1000       H  0.02485098  0.81727869  0.89108984     0.15400
H1001       H  0.99751238  0.83440712  0.60001987     0.13700
H1002       H  0.00266448  0.87798997  0.55274994     0.13700
H1003       H  0.48232532  0.62962848  0.95134011     0.13700
H1004       H  0.48733726  0.67072531  0.90279320     0.13700
H1005       H  0.00800260  0.74940334  0.52247283     0.26900
H1006       H  0.98001840  0.76030571  0.97705379     0.26900
N1007       N  0.00411089  0.71115730  0.70902581    -0.35800
N1008       N  0.99597405  0.69909558  0.77727683    -0.56400
N1009       N  0.00002270  0.77049480  0.78534225    -0.35800
N1010       N  0.00316245  0.78015379  0.71665107    -0.56400
C1011       C  0.99804956  0.67594182  0.71052431     0.27800
C1012       C  0.99946289  0.71778767  0.67846455     0.27800
C1013       C  0.98843708  0.75606108  0.81435691     0.27800
C1014       C  0.99521522  0.80029608  0.78272866     0.27800
C1015       C  0.00291627  0.67158038  0.76916558     0.36400
C1016       C  0.99701903  0.70095005  0.80928586     0.36400
C1017       C  0.00952898  0.78202784  0.68525910     0.36400
C1018       C  0.01100602  0.81457123  0.72592655     0.36400
C1019       C  0.99010123  0.66014699  0.68056183    -0.21100
C1020       C  0.99093217  0.68645153  0.66037908    -0.21100
C1021       C  0.97626269  0.77714917  0.83033560    -0.21100
C1022       C  0.98092155  0.80531601  0.81046216    -0.21100
C1023       C  0.00787608  0.65558628  0.79629033    -0.22200
C1024       C  0.00408700  0.67412632  0.82159983    -0.22200
C1025       C  0.02112655  0.81771038  0.67448724    -0.22200
C1026       C  0.02201858  0.83830929  0.70018844    -0.22200
C1027       C  0.00177428  0.65852524  0.73787328    -0.17500
C1028       C  0.00450175  0.75178515  0.66611806    -0.17500
C1029       C  0.00527166  0.82417144  0.75657715    -0.17500
C1030       C  0.99070013  0.72586617  0.82753351    -0.17500
H1031       H  0.98475312  0.63269601  0.67377878     0.15400
H1032       H  0.98656700  0.68291293  0.63513454     0.15400
H1033       H  0.96544203  0.77296436  0.85399696     0.15400
H1034       H  0.97446338  0.82697270  0.81582035     0.15400
H1035       H  0.01311847  0.63253918  0.79780510     0.13700
H1036       H  0.00637308  0.66850772  0.84621697     0.13700
H1037       H  0.02856019  0.82801471  0.65069168     0.13700
H1038       H  0.02956295  0.86738604  0.69984731     0.13700
H1039       H  0.01479527  0.73064860  0.72722459     0.26900
H1040       H  0.01444320  0.76335122  0.76964558     0.26900
O1041       O  0.01051047  0.96381946  0.52209413    -0.87600
C1042       C  0.05349234  0.53103493  0.94755338     0.88500
Mg1043     Mg  0.45504124  0.92178344  0.52391023     1.58100
O1044       O  0.04274200  0.57556545  0.52103331    -0.87300
O1045       O  0.05537829  0.51228068  0.55179997    -0.74600
C1046       C  0.35688131  0.49775735  0.99318468     0.93500
O1047       O  0.98611014  0.94007982  0.94628038    -0.74400
O1048       O  0.35486430  0.96470470  0.98928093    -0.81900
Mg1049     Mg  0.03835552  0.95778919  0.97764746     1.58000
C1050       C  0.99126948  0.64115142  0.50936693     0.93400
O1051       O  0.09524876  0.98060749  0.50465693    -0.80200
H1052       H  0.05094626  0.58741314  0.56725965    -0.05500
C1053       C  0.45797698  0.53632335  0.95426884     0.88400
O1054       O  0.43923964  0.95742808  0.55481966    -0.74700
O1055       O  0.05218020  0.51723897  0.97367468    -0.87500
O1056       O  0.02126608  0.64020998  0.50627066    -0.80300
C1057       C  0.12121426  0.63410511  0.98460911     0.93600
C1058       C  0.13004261  0.51586817  0.50855466     0.93400
Mg1059     Mg  0.44670901  0.55155494  0.51808888     1.58000
O1060       O  0.38750790  0.52739705  0.99978642    -0.80200
O1061       O  0.49829730  0.56875462  0.55044265    -0.74400
O1062       O  0.12009020  0.60292961  0.98663520    -0.80300
O1063       O  0.02347027  0.89722311  0.98236135    -0.82000
O1064       O  0.36559797  0.90778718  0.51179378    -0.80300
C1065       C  0.03176784  0.57840099  0.54726378     0.87900
O1066       O  0.43292777  0.99524224  0.52286702    -0.87500
O1067       O  0.47359370  0.54729263  0.98028357    -0.87600
O1068       O  0.43127844  0.99784736  0.94897482    -0.74600
Mg1069     Mg  0.08643413  0.56179170  0.51805933     1.58000
O1070       O  0.09182843  0.63629053  0.98190108    -0.82000
H1071       H  0.01510732  0.95496781  0.56791508    -0.05700
O1072       O  0.44196443  0.93381749  0.98033042    -0.87300
H1073       H  0.43087020  0.92015804  0.93457214    -0.05500
H1074       H  0.42404140  0.99461174  0.56919630    -0.05700
C1075       C  0.45126855  0.92996123  0.95369301     0.87800
C1076       C  0.02527436  0.97423216  0.54842571     0.88400
C1077       C  0.43149721  0.98298694  0.54967026     0.88500
H1078       H  0.46717911  0.55533447  0.93458464    -0.05700
O1079       O  0.04602399  0.55704859  0.94414605    -0.74700
Mg1080     Mg  0.39962488  0.94914631  0.98373308     1.58000
H1081       H  0.06055431  0.52035353  0.92711488    -0.05700
C1082       C  0.99253060  0.86791185  0.98763312     0.93400
O1083       O  0.39498755  0.87601633  0.52082350    -0.82000
C1084       C  0.36531954  0.87725962  0.51617369     0.93500
O1085       O  0.13207144  0.54721197  0.51265119    -0.81900
Mg1086     Mg  0.03120270  0.59068643  0.97839608     1.58200
O1087       O  0.46363252  0.86867019  0.99759757    -0.80300
O1088       O  0.46176555  0.61190325  0.51319943    -0.82000
O1089       O  0.48711776  0.53740942  0.77088327    -0.87600
C1090       C  0.44036690  0.96027960  0.70343319     0.88500
Mg1091     Mg  0.04766507  0.58360928  0.76501460     1.58100
O1092       O  0.46330536  0.93151884  0.77473964    -0.87300
O1093       O  0.45434525  0.99795102  0.80369782    -0.74600
C1094       C  0.14035877  0.49650328  0.73696078     0.93500
O1095       O  0.50632199  0.54977742  0.69662926    -0.74400
O1096       O  0.14165412  0.52733050  0.73179666    -0.81900
Mg1097     Mg  0.45513686  0.53072734  0.72797131     1.58000
C1098       C  0.00743806  0.86044260  0.76020108     0.93400
O1099       O  0.40006274  0.51458730  0.75188651    -0.80200
H1100       H  0.45817060  0.92210741  0.82123194    -0.05500
C1101       C  0.03720149  0.95596249  0.70135867     0.88400
O1102       O  0.06599615  0.55139589  0.79798210    -0.74700
O1103       O  0.44440457  0.97583654  0.72922590    -0.87500
O1104       O  0.48081248  0.86373288  0.76128127    -0.80300
C1105       C  0.37742695  0.86027853  0.74343609     0.93600
C1106       C  0.37019217  0.48452473  0.75811336     0.93400
Mg1107     Mg  0.05509673  0.94941565  0.76972684     1.58000
O1108       O  0.10917894  0.96292215  0.74431591    -0.80200
O1109       O  0.00483513  0.93218236  0.80184029    -0.74400
O1110       O  0.37895304  0.89139760  0.74748139    -0.80300
O1111       O  0.46828795  0.59060530  0.73253026    -0.82000
O1112       O  0.13684753  0.59766383  0.74933073    -0.80300
C1113       C  0.47585603  0.92956525  0.80086659     0.87900
O1114       O  0.07101106  0.51111165  0.76839925    -0.87500
O1115       O  0.02310976  0.94436694  0.72737657    -0.87600
O1116       O  0.06162580  0.48932236  0.69452141    -0.74600
Mg1117     Mg  0.42008361  0.94604826  0.77238889     1.58000
O1118       O  0.40644505  0.85787386  0.73954075    -0.82000
H1119       H  0.48308037  0.54329948  0.81726962    -0.05700
O1120       O  0.05281731  0.55647558  0.72304276    -0.87300
H1121       H  0.05900522  0.56642998  0.67667689    -0.05500
H1122       H  0.08344101  0.51662259  0.81460443    -0.05700
C1123       C  0.04073329  0.55831314  0.69668707     0.87800
C1124       C  0.47329283  0.52498680  0.79684321     0.88400
C1125       C  0.07423362  0.52600395  0.79437139     0.88500
H1126       H  0.02675640  0.93743278  0.68108413    -0.05700
O1127       O  0.44787120  0.93432447  0.70003300    -0.74700
Mg1128     Mg  0.09588893  0.54166912  0.72582324     1.58000
H1129       H  0.43095783  0.96945848  0.68319376    -0.05700
C1130       C  0.00202408  0.62312606  0.73426465     0.93400
O1131       O  0.10820871  0.62927867  0.76151306    -0.82000
C1132       C  0.13761122  0.62789069  0.75631872     0.93500
O1133       O  0.37437355  0.96051026  0.76845811    -0.81900
Mg1134     Mg  0.46643169  0.90265991  0.73361251     1.58200
O1135       O  0.03247705  0.62329599  0.73937602    -0.80300
O1136       O  0.03918319  0.88931083  0.76455456    -0.82000
N1137       N  0.28033130  0.50416192  0.52969343    -0.35800
N1138       N  0.21089928  0.50483915  0.53535869    -0.56400
N1139       N  0.20413805  0.50157725  0.96592369    -0.35800
N1140       N  0.27222479  0.49838348  0.96240715    -0.56400
C1141       C  0.27131208  0.49134345  0.55960061     0.27800
C1142       C  0.30735810  0.49723204  0.52016559     0.27800
C1143       C  0.16975707  0.49538937  0.97283777     0.27800
C1144       C  0.20431758  0.49513131  0.93456421     0.27800
C1145       C  0.21655958  0.50056360  0.56626353     0.36400
C1146       C  0.18185527  0.51112191  0.53394690     0.36400
C1147       C  0.30785551  0.50635656  0.96668742     0.36400
C1148       C  0.26912651  0.50682886  0.93209277     0.36400
C1149       C  0.29323644  0.47647834  0.56930020    -0.21100
C1150       C  0.31606173  0.48034722  0.54455643    -0.21100
C1151       C  0.14795576  0.48532270  0.94537756    -0.21100
C1152       C  0.16967877  0.48492999  0.92132905    -0.21100
C1153       C  0.19028911  0.50326604  0.58427481    -0.22200
C1154       C  0.16865150  0.51029332  0.56390352    -0.22200
C1155       C  0.32749455  0.51975908  0.93905151    -0.22200
C1156       C  0.30303019  0.52054685  0.91723462    -0.22200
C1157       C  0.24421774  0.49314187  0.57854078    -0.17500
C1158       C  0.32612593  0.50807503  0.49092830    -0.17500
C1159       C  0.23557555  0.50052696  0.91730729    -0.17500
C1160       C  0.16478963  0.51434088  0.50596771    -0.17500
H1161       H  0.29273109  0.46388084  0.59180026     0.15400
H1162       H  0.33679213  0.47175761  0.54463668     0.15400
H1163       H  0.11944176  0.47925003  0.94269257     0.15400
H1164       H  0.16108138  0.47855268  0.89679476     0.15400
H1165       H  0.18611570  0.49955552  0.60937836     0.13700
H1166       H  0.14508289  0.51323299  0.57036513     0.13700
H1167       H  0.35641908  0.52824998  0.93511114     0.13700
H1168       H  0.30957864  0.53066292  0.89333150     0.13700
H1169       H  0.27151931  0.52025471  0.51769225     0.26900
H1170       H  0.22726875  0.51371401  0.98101908     0.26900
N1171       N  0.29477615  0.49413124  0.71772239    -0.35800
N1172       N  0.22637622  0.49671674  0.71092278    -0.56400
N1173       N  0.21795448  0.49082028  0.77962102    -0.35800
N1174       N  0.28373436  0.48313678  0.78583876    -0.56400
C1175       C  0.29027352  0.49155937  0.68586657     0.27800
C1176       C  0.32033637  0.48413777  0.72535123     0.27800
C1177       C  0.18417748  0.48549644  0.77013616     0.27800
C1178       C  0.21523186  0.48005719  0.81020322     0.27800
C1179       C  0.24092157  0.50860889  0.68204309     0.36400
C1180       C  0.19970065  0.50604256  0.71432030     0.36400
C1181       C  0.31755238  0.48579760  0.78416046     0.36400
C1182       C  0.27708772  0.48397444  0.81689343     0.36400
C1183       C  0.31340027  0.47999302  0.67307790    -0.21100
C1184       C  0.33245557  0.47541860  0.69795344    -0.21100
C1185       C  0.15995281  0.47174778  0.79536675    -0.21100
C1186       C  0.17943934  0.46815445  0.82042439    -0.21100
C1187       C  0.22389246  0.52611788  0.66729391    -0.22200
C1188       C  0.19720800  0.52382661  0.68742182    -0.22200
C1189       C  0.33218868  0.48765299  0.81412209    -0.22200
C1190       C  0.30654921  0.48631467  0.83485015    -0.22200
C1191       C  0.26749232  0.50148433  0.66801312    -0.17500
C1192       C  0.33477388  0.48481589  0.75606665    -0.17500
C1193       C  0.24433486  0.48132187  0.82936598    -0.17500
C1194       C  0.17571565  0.49579115  0.74032071    -0.17500
H1195       H  0.31664478  0.47578179  0.64837990     0.15400
H1196       H  0.35312812  0.46688453  0.69603286     0.15400
H1197       H  0.13127831  0.46534228  0.79612397     0.15400
H1198       H  0.16833328  0.45772896  0.84352286     0.15400
H1199       H  0.23037240  0.53951296  0.64452362     0.13700
H1200       H  0.17843397  0.53431641  0.68268223     0.13700
H1201       H  0.35838535  0.48927947  0.82042462     0.13700
H1202       H  0.30933163  0.48639704  0.86023476     0.13700
H1203       H  0.28441597  0.50617966  0.73300400     0.26900
H1204       H  0.24247115  0.50475058  0.76705214     0.26900
N1205       N  0.20641310  0.72297232  0.53051608    -0.35800
N1206       N  0.27784666  0.79058484  0.54019958    -0.56400
N1207       N  0.28227851  0.78667242  0.97270663    -0.35800
N1208       N  0.21169203  0.71813051  0.96241171    -0.56400
C1209       C  0.20519868  0.72823480  0.56198973     0.27800
C1210       C  0.17152354  0.69726704  0.52062665     0.27800
C1211       C  0.31661729  0.81278373  0.98336365     0.27800
C1212       C  0.28550690  0.77910494  0.94210870     0.27800
C1213       C  0.27010175  0.78122518  0.57083295     0.36400
C1214       C  0.31188752  0.82162536  0.53977663     0.36400
C1215       C  0.17552101  0.69086333  0.96258933     0.36400
C1216       C  0.21945341  0.72996908  0.93230237     0.36400
C1217       C  0.16913952  0.70538172  0.57228727    -0.21100
C1218       C  0.14791323  0.68598808  0.54626952    -0.21100
C1219       C  0.34180941  0.82252683  0.95899222    -0.21100
C1220       C  0.32226094  0.80113684  0.93310042    -0.21100
C1221       C  0.29905483  0.80714995  0.58993785    -0.22200
C1222       C  0.32561283  0.83255801  0.57028604    -0.22200
C1223       C  0.16004344  0.68529040  0.93249570    -0.22200
C1224       C  0.18781900  0.71022915  0.91333010    -0.22200
C1225       C  0.23604026  0.75155356  0.58199461    -0.17500
C1226       C  0.15762541  0.66873017  0.98899001    -0.17500
C1227       C  0.25574955  0.75490056  0.92150721    -0.17500
C1228       C  0.32530892  0.82984053  0.01377740    -0.17500
H1229       H  0.15910191  0.70269324  0.59611751     0.15400
H1230       H  0.11851366  0.66531243  0.54642015     0.15400
H1231       H  0.37124328  0.84311294  0.95964540     0.15400
H1232       H  0.33371692  0.80234964  0.91004708     0.15400
H1233       H  0.30020613  0.80884566  0.61540389     0.13700
H1234       H  0.35146962  0.85696388  0.57768991     0.13700
H1235       H  0.13188213  0.66506740  0.92503879     0.13700
H1236       H  0.18474547  0.71337163  0.88835123     0.13700
H1237       H  0.23042648  0.73263146  0.51746695     0.26900
H1238       H  0.25754376  0.77771704  0.98462627     0.26900
N1239       N  0.22106805  0.70590147  0.71768996    -0.35800
N1240       N  0.22175730  0.71507582  0.78600381    -0.56400
N1241       N  0.29292431  0.78344969  0.78211030    -0.35800
N1242       N  0.29140682  0.77493721  0.71368357    -0.56400
C1243       C  0.18599425  0.67908812  0.72477741     0.27800
C1244       C  0.22176633  0.71214070  0.68617904     0.27800
C1245       C  0.28319126  0.78636570  0.81196923     0.27800
C1246       C  0.32110793  0.81741048  0.77377314     0.27800
C1247       C  0.19356885  0.67945554  0.78325392     0.36400
C1248       C  0.23095874  0.72128413  0.81703567     0.36400
C1249       C  0.28805323  0.76265474  0.68360125     0.36400
C1250       C  0.32701383  0.80279380  0.71772161     0.36400
C1251       C  0.16425360  0.66760931  0.69733198    -0.21100
C1252       C  0.18679128  0.68836307  0.67302603    -0.21100
C1253       C  0.30588819  0.82248601  0.82300641    -0.21100
C1254       C  0.32998204  0.84198944  0.79909657    -0.21100
C1255       C  0.18482189  0.66276418  0.81259440    -0.22200
C1256       C  0.20868396  0.68924480  0.83400974    -0.22200
C1257       C  0.32182140  0.78285238  0.66845053    -0.22200
C1258       C  0.34643267  0.80842337  0.68998866    -0.22200
C1259       C  0.17374452  0.66304350  0.75495427    -0.17500
C1260       C  0.25393202  0.73652417  0.66887004    -0.17500
C1261       C  0.34076188  0.82572816  0.74491320    -0.17500
C1262       C  0.25628954  0.75660344  0.83021527    -0.17500
H1263       H  0.13524741  0.64607212  0.69493319     0.15400
H1264       H  0.17838619  0.68538515  0.64840983     0.15400
H1265       H  0.30579130  0.83346356  0.84617745     0.15400
H1266       H  0.35182302  0.87088857  0.80066892     0.15400
H1267       H  0.16331256  0.63460178  0.81800651     0.12900
H1268       H  0.20963926  0.68510653  0.85909984     0.13700
H1269       H  0.32812104  0.77995714  0.64429118     0.13700
H1270       H  0.37503267  0.82930101  0.68536115     0.13700
H1271       H  0.24401972  0.71608574  0.73291382     0.26900
H1272       H  0.28388901  0.75886190  0.76946527     0.26900
C1273       C  0.25153414  0.76383156  0.86382637    -0.15600
C1274       C  0.26423234  0.75191708  0.88787049    -0.30800
H1275       H  0.23602066  0.77795090  0.86869518     0.13400
H1276       H  0.28069070  0.73881982  0.88290129     0.14000
C1277       C  0.23168153  0.74615286  0.61680004    -0.15600
C1278       C  0.25248429  0.73546839  0.63366359    -0.30800
H1279       H  0.21230182  0.75230907  0.62863699     0.13400
H1280       H  0.27235116  0.73033600  0.62142739     0.14000
C1281       C  0.24020909  0.47774394  0.86439752    -0.15600
C1282       C  0.23321693  0.50046198  0.88206868    -0.30800
H1283       H  0.25120544  0.96190920  0.87967499     0.13400
H1284       H  0.22604779  0.51959362  0.87070144     0.14000
C1285       C  0.24285527  0.48521084  0.61309259    -0.15600
C1286       C  0.27196587  0.50492329  0.63300307    -0.30800
H1287       H  0.21968619  0.97007511  0.62811249     0.13400
H1288       H  0.29920502  0.52438305  0.62371779     0.14000
C1289       C  0.00861790  0.74544516  0.88328041    -0.15600
C1290       C  0.98487614  0.71975110  0.86221263    -0.30800
H1291       H  0.03318108  0.76975915  0.87427210     0.13400
H1292       H  0.45437934  0.69403107  0.87352119     0.14000
C1293       C  0.00578419  0.75540780  0.63109101    -0.15600
C1294       C  0.98318210  0.76377854  0.61425040    -0.30800
H1295       H  0.02330406  0.74724623  0.61855075     0.13400
H1296       H  0.47309800  0.77252686  0.62925054     0.14000
N1297       N  0.48812743  0.21856980  0.03215018    -0.35800
N1298       N  0.48563904  0.28730574  0.02522609    -0.56400
N1299       N  0.50315411  0.29682702  0.45885252    -0.35800
N1300       N  0.49880498  0.22498046  0.46371367    -0.56400
C1301       C  0.47596352  0.22179267  0.06079568     0.27800
C1302       C  0.47955523  0.18260030  0.02872142     0.27800
C1303       C  0.49810985  0.32656976  0.46112383     0.27800
C1304       C  0.50297042  0.28919372  0.42773478     0.27800
C1305       C  0.48705145  0.28633492  0.05711456     0.36400
C1306       C  0.49101050  0.32131594  0.01766824     0.36400
C1307       C  0.00866486  0.19835336  0.47658095     0.36400
C1308       C  0.01385810  0.23470536  0.43750902     0.36400
C1309       C  0.45910546  0.18751646  0.07558418    -0.21100
C1310       C  0.46169168  0.16283500  0.05554523    -0.21100
C1311       C  0.49504617  0.33828971  0.43117151    -0.21100
C1312       C  0.49843441  0.31501696  0.41017368    -0.21100
C1313       C  0.49270110  0.31955459  0.06992488    -0.22200
C1314       C  0.49503465  0.34164963  0.04497871    -0.22200
C1315       C  0.01957093  0.18601945  0.45056477    -0.22200
C1316       C  0.02324480  0.20925478  0.42601507    -0.22200
C1317       C  0.48192588  0.25537341  0.07484219    -0.17500
C1318       C  0.99233719  0.16929993  0.00852044    -0.17500
C1319       C  0.50807570  0.26055530  0.41462476    -0.17500
C1320       C  0.49216221  0.33455409  0.98662036    -0.17500
H1321       H  0.44614607  0.18100145  0.09844967     0.15400
H1322       H  0.45171439  0.13376683  0.06049258     0.15400
H1323       H  0.49163369  0.36177072  0.42499842     0.15400
H1324       H  0.49835945  0.31765515  0.38485003     0.15400
H1325       H  0.49473529  0.32710577  0.09462685     0.13700
H1326       H  0.49965788  0.36972005  0.04680708     0.13700
H1327       H  0.02416410  0.16256774  0.44916586     0.13700
H1328       H  0.03192548  0.20754497  0.40244234     0.13700
H1329       H  0.50563588  0.24063830  0.01780429     0.26900
H1330       H  0.50986243  0.28482835  0.47735936     0.26900
N1331       N  0.50715451  0.21458068  0.20748586    -0.35800
N1332       N  0.50240591  0.20804047  0.27613074    -0.56400
N1333       N  0.50543491  0.27924434  0.28050751    -0.35800
N1334       N  0.50556424  0.28368154  0.21139367    -0.56400
C1335       C  0.50153071  0.17968779  0.21076484     0.27800
C1336       C  0.50187082  0.21907146  0.17656689     0.27800
C1337       C  0.49310551  0.26532920  0.30959639     0.27800
C1338       C  0.49762804  0.30692248  0.27571447     0.27800
C1339       C  0.50807594  0.17935538  0.26955230     0.36400
C1340       C  0.50394482  0.21165263  0.30798247     0.36400
C1341       C  0.51159013  0.28349177  0.18006168     0.36400
C1342       C  0.51337503  0.31862834  0.21890919     0.36400
C1343       C  0.49324172  0.16195974  0.18158600    -0.21100
C1344       C  0.49342771  0.18674633  0.16004280    -0.21100
C1345       C  0.47679323  0.28401791  0.32307517    -0.21100
C1346       C  0.48025337  0.31075949  0.30194183    -0.21100
C1347       C  0.51276816  0.16445794  0.29747675    -0.22200
C1348       C  0.51018163  0.18490961  0.32172849    -0.22200
C1349       C  0.52299807  0.31841615  0.16755960    -0.22200
C1350       C  0.52413401  0.34067145  0.19212971    -0.22200
C1351       C  0.50575661  0.16414202  0.23903772    -0.17500
C1352       C  0.50636578  0.25203892  0.16251619    -0.17500
C1353       C  0.50739694  0.32982618  0.24884129    -0.17500
C1354       C  0.49761495  0.23733327  0.32482102    -0.17500
H1355       H  0.48813701  0.13424221  0.17619286     0.15400
H1356       H  0.48879332  0.18161997  0.13494713     0.15400
H1357       H  0.46303759  0.27833890  0.34553006     0.15400
H1358       H  0.47046799  0.33030395  0.30525436     0.15400
H1359       H  0.51678800  0.14074347  0.30026582     0.13700
H1360       H  0.51204068  0.18010458  0.34660436     0.13700
H1361       H  0.53005918  0.32707540  0.14333915     0.13700
H1362       H  0.53151184  0.36963024  0.19036289     0.13700
H1363       H  0.51777853  0.23524477  0.22475743     0.26900
H1364       H  0.52198872  0.27327336  0.26619792     0.26900
O1365       O  0.50897445  0.45363793  0.01935366    -0.87600
C1366       C  0.55793653  0.03797075  0.45011975     0.88500
Mg1367     Mg  0.95141782  0.41227301  0.01991096     1.58100
O1368       O  0.53958301  0.06540484  0.01878359    -0.87300
O1369       O  0.55047775  0.00131820  0.05015450    -0.74600
C1370       C  0.86213626  0.01100936  0.48897800     0.93500
O1371       O  0.49157419  0.45205434  0.44456558    -0.74400
O1372       O  0.85843724  0.47406360  0.48517454    -0.81900
Mg1373     Mg  0.54325228  0.47015598  0.47659917     1.58000
C1374       C  0.48901040  0.13189288  0.00664399     0.93400
O1375       O  0.59316467  0.47275308  0.99936817    -0.80200
H1376       H  0.55015415  0.07981652  0.06445749    -0.05500
C1377       C  0.96385632  0.04542015  0.45093678     0.88400
O1378       O  0.93659347  0.44652197  0.05328599    -0.74700
O1379       O  0.55614222  0.02525628  0.47681210    -0.87500
O1380       O  0.51886889  0.13093082  0.00234673    -0.80300
C1381       C  0.62522397  0.14273385  0.48442592     0.93600
C1382       C  0.62454175  0.00287585  0.00667130     0.93400
Mg1383     Mg  0.94440235  0.04254508  0.02193253     1.58000
O1384       O  0.89360718  0.04083819  0.49133405    -0.80200
O1385       O  0.99689204  0.06007195  0.05305093    -0.74400
O1386       O  0.62381669  0.11155936  0.48805430    -0.80300
O1387       O  0.52907744  0.41019350  0.48061405    -0.82000
O1388       O  0.86060630  0.39736951  0.00815036    -0.80300
C1389       C  0.53002859  0.06986593  0.04512680     0.87900
O1390       O  0.92840816  0.48468024  0.02321675    -0.87500
O1391       O  0.97886854  0.05761247  0.47701974    -0.87600
O1392       O  0.93645490  0.50933154  0.44817704    -0.74600
Mg1393     Mg  0.58191857  0.04992760  0.01579327     1.58000
O1394       O  0.59594354  0.14496565  0.48037727    -0.82000
H1395       H  0.51503870  0.44548440  0.06510099    -0.05700
O1396       O  0.94744106  0.44520662  0.47975786    -0.87300
H1397       H  0.93819346  0.43264732  0.43371175    -0.05500
H1398       H  0.92077188  0.48238113  0.06984860    -0.05700
C1399       C  0.95792204  0.44230555  0.45333004     0.87800
C1400       C  0.52436363  0.46456561  0.04546266     0.88400
C1401       C  0.92789624  0.47160184  0.04951045     0.88500
H1402       H  0.97404260  0.06325471  0.43052941    -0.05700
O1403       O  0.55058712  0.06384654  0.44515819    -0.74700
Mg1404     Mg  0.90423160  0.45960188  0.48162075     1.58000
H1405       H  0.56537975  0.02646010  0.43049944    -0.05700
C1406       C  0.49879968  0.38070549  0.48684400     0.93400
O1407       O  0.89113786  0.36679516  0.01805305    -0.82000
C1408       C  0.86106306  0.36737036  0.01367374     0.93500
O1409       O  0.62647010  0.03409098  0.01121275    -0.81900
Mg1410     Mg  0.53495286  0.09917921  0.47657879     1.58200
O1411       O  0.97092996  0.38109527  0.50006696    -0.80300
O1412       O  0.95962179  0.10347221  0.01716453    -0.82000
O1413       O  0.99090776  0.04615277  0.27414926    -0.87600
C1414       C  0.94113665  0.46901425  0.19933690     0.88500
Mg1415     Mg  0.55005578  0.08934662  0.27057613     1.58100
O1416       O  0.96232762  0.43733615  0.26953747    -0.87300
O1417       O  0.95052098  0.50039853  0.30104167    -0.74600
C1418       C  0.64077665  0.00103747  0.24013545     0.93500
O1419       O  0.00928918  0.05637583  0.19960586    -0.74400
O1420       O  0.64263633  0.03226523  0.23619130    -0.81900
Mg1421     Mg  0.95898416  0.04004473  0.23135702     1.58000
C1422       C  0.50872340  0.36611127  0.25100053     0.93400
O1423       O  0.90518076  0.02697181  0.25600915    -0.80200
H1424       H  0.95522773  0.42555638  0.31558025    -0.05500
C1425       C  0.53627302  0.46443883  0.19447024     0.88400
O1426       O  0.56735905  0.05650511  0.30382918    -0.74700
O1427       O  0.94310444  0.48270285  0.22569252    -0.87500
O1428       O  0.98225843  0.37125794  0.25393190    -0.80300
C1429       C  0.87799636  0.36686935  0.23623832     0.93600
C1430       C  0.87448755  0.99754900  0.26161704     0.93400
Mg1431     Mg  0.55544043  0.45617875  0.26216225     1.58000
O1432       O  0.60954731  0.47137297  0.23620138    -0.80200
O1433       O  0.50556316  0.43761407  0.29495671    -0.74400
O1434       O  0.87897837  0.39783408  0.23910407    -0.80300
O1435       O  0.97405631  0.10043522  0.23490505    -0.82000
O1436       O  0.63929717  0.10272866  0.25515218    -0.80300
C1437       C  0.97389163  0.43443741  0.29581513     0.87900
O1438       O  0.57274441  0.01652137  0.27405909    -0.87500
O1439       O  0.52250882  0.45139957  0.22031168    -0.87600
O1440       O  0.56201548  0.99507364  0.20007373    -0.74600
Mg1441     Mg  0.91803228  0.45030630  0.26744331     1.58000
O1442       O  0.90741233  0.36504896  0.23261261    -0.82000
H1443       H  0.98718948  0.05444330  0.32015133    -0.05700
O1444       O  0.55487350  0.06207116  0.22895746    -0.87300
H1445       H  0.56066306  0.07076655  0.18244087    -0.05500
H1446       H  0.58389361  0.02102937  0.32048955    -0.05700
C1447       C  0.54249695  0.06304361  0.20250022     0.87800
C1448       C  0.97679293  0.03531606  0.30026897     0.88400
C1449       C  0.57537054  0.03094606  0.30017678     0.88500
H1450       H  0.52581564  0.44689665  0.17360236    -0.05700
O1451       O  0.94981890  0.44397134  0.19526489    -0.74700
Mg1452     Mg  0.59742733  0.04709397  0.23141975     1.58000
H1453       H  0.93254218  0.47910411  0.17918634    -0.05700
C1454       C  0.50528487  0.12838940  0.23743537     0.93400
O1455       O  0.61111281  0.13491382  0.26668854    -0.82000
C1456       C  0.64039276  0.13331388  0.26127559     0.93500
O1457       O  0.87130170  0.46325714  0.26441913    -0.81900
Mg1458     Mg  0.96771151  0.41093070  0.22784433     1.58200
O1459       O  0.53536027  0.12840022  0.24399645    -0.80300
O1460       O  0.53995053  0.39552169  0.25623132    -0.82000
N1461       N  0.77818967  0.99929511  0.03228703    -0.35800
N1462       N  0.70788315  0.99814384  0.03639109    -0.56400
N1463       N  0.70871677  0.01541482  0.46896125    -0.35800
N1464       N  0.77795540  0.01506893  0.46304074    -0.56400
C1465       C  0.77051677  0.99020523  0.06313160     0.27800
C1466       C  0.80506178  0.99157697  0.02399338     0.27800
C1467       C  0.67399753  0.00739140  0.47688269     0.27800
C1468       C  0.70833715  0.00967441  0.43736518     0.27800
C1469       C  0.71551407  0.99918681  0.06766427     0.36400
C1470       C  0.67827100  0.00337191  0.03362045     0.36400
C1471       C  0.81370361  0.02315652  0.46618481     0.36400
C1472       C  0.77393096  0.02441483  0.43330149     0.36400
C1473       C  0.79309677  0.97688464  0.07464573    -0.21100
C1474       C  0.81493931  0.97785553  0.05005645    -0.21100
C1475       C  0.65146543  0.99710097  0.44984142    -0.21100
C1476       C  0.67303433  0.99821972  0.42501693    -0.21100
C1477       C  0.69001795  0.00426394  0.08466831    -0.22200
C1478       C  0.66665371  0.00714291  0.06315229    -0.22200
C1479       C  0.83267533  0.03804413  0.43846714    -0.22200
C1480       C  0.80752975  0.03935572  0.41775335    -0.22200
C1481       C  0.74408743  0.99411671  0.08127130    -0.17500
C1482       C  0.82280504  0.99913039  0.99428581    -0.17500
C1483       C  0.73946024  0.01622172  0.41925439    -0.17500
C1484       C  0.65943911  0.00160416  0.00510451    -0.17500
H1485       H  0.79361519  0.96715218  0.09824331     0.15400
H1486       H  0.83586806  0.96954893  0.05132189     0.15400
H1487       H  0.62244606  0.98957363  0.44800979     0.15400
H1488       H  0.66383264  0.99182598  0.40059561     0.15400
H1489       H  0.68757250  0.00485461  0.10994341     0.13700
H1490       H  0.64312195  0.01053936  0.06872124     0.13700
H1491       H  0.86141651  0.04660895  0.43357148     0.13700
H1492       H  0.81319182  0.04987879  0.39390685     0.13700
H1493       H  0.76863033  0.01368674  0.01860262     0.26900
H1494       H  0.73209566  0.02789587  0.48376200     0.26900
N1495       N  0.79946757  0.00747664  0.22025207    -0.35800
N1496       N  0.72808531  0.00403018  0.21309425    -0.56400
N1497       N  0.71990235  0.99870104  0.28182300    -0.35800
N1498       N  0.78872597  0.99755620  0.28868131    -0.56400
C1499       C  0.79466477  0.00385443  0.18843808     0.27800
C1500       C  0.82563188  0.99840789  0.22824847     0.27800
C1501       C  0.68514410  0.99006597  0.27211632     0.27800
C1502       C  0.71811221  0.98909836  0.31263369     0.27800
C1503       C  0.74237958  0.01652800  0.18423364     0.36400
C1504       C  0.69985003  0.01113641  0.21639222     0.36400
C1505       C  0.82307500  0.00150938  0.28704455     0.36400
C1506       C  0.78225905  0.99911691  0.31969177     0.36400
C1507       C  0.81853380  0.99303454  0.17600686    -0.21100
C1508       C  0.83807943  0.98961206  0.20107876    -0.21100
C1509       C  0.66102315  0.97480600  0.29729897    -0.21100
C1510       C  0.68179585  0.97414882  0.32271982    -0.21100
C1511       C  0.72351982  0.03206796  0.16931675    -0.22200
C1512       C  0.69611758  0.02810620  0.18943569    -0.22200
C1513       C  0.83838135  0.00516738  0.31700540    -0.22200
C1514       C  0.81259647  0.00364359  0.33767886    -0.22200
C1515       C  0.77022425  0.01129528  0.17032126    -0.17500
C1516       C  0.83994207  0.99943640  0.25911025    -0.17500
C1517       C  0.74859877  0.99435863  0.33208092    -0.17500
C1518       C  0.67587527  0.99984599  0.24248583    -0.17500
H1519       H  0.82167597  0.98818092  0.15144776     0.15400
H1520       H  0.85914742  0.98157646  0.19943358     0.15400
H1521       H  0.63164061  0.96582290  0.29786284     0.15400
H1522       H  0.67130147  0.96393524  0.34602837     0.15400
H1523       H  0.72921100  0.04517141  0.14642634     0.13700
H1524       H  0.67592021  0.03680643  0.18462118     0.13700
H1525       H  0.86509302  0.00799765  0.32335744     0.13700
H1526       H  0.81574111  0.00467644  0.36306513     0.13700
H1527       H  0.78825244  0.01897326  0.23527765     0.26900
H1528       H  0.74423219  0.01458666  0.26933616     0.26900
N1529       N  0.70187749  0.21269194  0.02838632    -0.35800
N1530       N  0.77344361  0.28095670  0.03806220    -0.56400
N1531       N  0.78641957  0.29610825  0.47077679    -0.35800
N1532       N  0.71604803  0.22635585  0.46138568    -0.56400
C1533       C  0.70650232  0.21150223  0.06008302     0.27800
C1534       C  0.67390702  0.17863757  0.01893592     0.27800
C1535       C  0.82081413  0.32237262  0.48121709     0.27800
C1536       C  0.78962201  0.28782236  0.44039784     0.27800
C1537       C  0.76123649  0.27557018  0.06803988     0.36400
C1538       C  0.80303032  0.31596800  0.03697555     0.36400
C1539       C  0.67990529  0.19891613  0.46169311     0.36400
C1540       C  0.72377737  0.23774857  0.43116102     0.36400
C1541       C  0.68085626  0.17642394  0.07095000    -0.21100
C1542       C  0.66022075  0.15579100  0.04513414    -0.21100
C1543       C  0.84597351  0.33148793  0.45690065    -0.21100
C1544       C  0.82636647  0.30952679  0.43127867    -0.21100
C1545       C  0.78344012  0.30726223  0.08616452    -0.22200
C1546       C  0.80990429  0.33290296  0.06642948    -0.22200
C1547       C  0.66448833  0.19277490  0.43152289    -0.22200
C1548       C  0.69220947  0.21763386  0.41223179    -0.22200
C1549       C  0.73185810  0.24168291  0.07972108    -0.17500
C1550       C  0.66186388  0.17741784  0.48841660    -0.17500
C1551       C  0.75992450  0.26282187  0.42016696    -0.17500
C1552       C  0.82981897  0.33970903  0.51152163    -0.17500
H1553       H  0.67711305  0.16668126  0.09502774     0.15400
H1554       H  0.63748257  0.12724782  0.04580121     0.15400
H1555       H  0.87547543  0.35185489  0.45750102     0.15400
H1556       H  0.83780079  0.30997347  0.40837003     0.15400
H1557       H  0.78105846  0.31136917  0.11107460     0.13700
H1558       H  0.83211700  0.36050094  0.07313611     0.13700
H1559       H  0.63633918  0.17242665  0.42414410     0.13700
H1560       H  0.68921632  0.22079131  0.38722508     0.13700
H1561       H  0.71416068  0.23644577  0.01457540     0.26900
H1562       H  0.76166295  0.28724328  0.48266106     0.26900
N1563       N  0.72240955  0.20891957  0.21844563    -0.35800
N1564       N  0.72623818  0.22225140  0.28656253    -0.56400
N1565       N  0.79663644  0.29083917  0.27879929    -0.35800
N1566       N  0.79215611  0.27813336  0.21058396    -0.56400
C1567       C  0.68794940  0.18183334  0.22696929     0.27800
C1568       C  0.72216230  0.21193388  0.18650675     0.27800
C1569       C  0.78807775  0.29519052  0.30874926     0.27800
C1570       C  0.82326659  0.32472975  0.26858751     0.27800
C1571       C  0.69762108  0.18666689  0.28545416     0.36400
C1572       C  0.73744016  0.22993433  0.31715129     0.36400
C1573       C  0.78724779  0.26507533  0.18060888     0.36400
C1574       C  0.82702360  0.30791449  0.21264785     0.36400
C1575       C  0.66573391  0.16696942  0.20005518    -0.21100
C1576       C  0.68726951  0.18574226  0.17465210    -0.21100
C1577       C  0.80984747  0.33224510  0.31782907    -0.21100
C1578       C  0.83215113  0.35080526  0.29269222    -0.21100
C1579       C  0.69049942  0.17149632  0.31533908    -0.22200
C1580       C  0.71593294  0.19870803  0.33536620    -0.22200
C1581       C  0.81917859  0.28705041  0.16346218    -0.22200
C1582       C  0.84435194  0.31409182  0.18376064    -0.22200
C1583       C  0.67656652  0.16842900  0.25807402    -0.17500
C1584       C  0.75321963  0.23602426  0.16775267    -0.17500
C1585       C  0.84167686  0.33199288  0.23911361    -0.17500
C1586       C  0.76331173  0.26606297  0.32882605    -0.17500
H1587       H  0.63704478  0.14447131  0.19873073     0.15400
H1588       H  0.67809788  0.18010337  0.15025259     0.15400
H1589       H  0.81037625  0.34456694  0.34050246     0.15400
H1590       H  0.85288502  0.38014429  0.29267870     0.15400
H1591       H  0.66928980  0.14368534  0.32199520     0.12900
H1592       H  0.71811803  0.19525196  0.36037947     0.13700
H1593       H  0.82370302  0.28463806  0.13869161     0.13700
H1594       H  0.87172912  0.33649652  0.17754641     0.13700
H1595       H  0.74566977  0.22168451  0.23328766     0.26900
H1596       H  0.78809595  0.26559332  0.26736271     0.26900
C1597       C  0.76087193  0.27514794  0.36260077    -0.15600
C1598       C  0.76820919  0.25866038  0.38676738    -0.30800
H1599       H  0.75164163  0.29493949  0.36753515     0.13400
H1600       H  0.77854032  0.23972481  0.38199702     0.14000
C1601       C  0.72760029  0.23784133  0.11461913    -0.15600
C1602       C  0.75076066  0.23139415  0.13264328    -0.30800
H1603       H  0.70736465  0.24344559  0.12554694     0.13400
H1604       H  0.77187672  0.22758668  0.12111642     0.14000
C1605       C  0.74492831  0.99224263  0.36718251    -0.15600
C1606       C  0.73572132  0.01397585  0.38400384    -0.30800
H1607       H  0.74413669  0.46521315  0.37594655     0.13400
H1608       H  0.72610926  0.03082980  0.37193821     0.14000
C1609       C  0.74394575  0.99031910  0.11637258    -0.15600
C1610       C  0.77337442  0.01261297  0.13515432    -0.30800
H1611       H  0.71701505  0.47310212  0.12550982     0.13400
H1612       H  0.80009945  0.03165529  0.12479747     0.14000
C1613       C  0.51415990  0.26205446  0.37974121    -0.15600
C1614       C  0.49344680  0.23329784  0.35988437    -0.30800
H1615       H  0.53394869  0.28884544  0.36973893     0.13400
H1616       H  0.97513712  0.20831057  0.37485383     0.14000
C1617       C  0.50693437  0.25321929  0.12738678    -0.15600
C1618       C  0.48236592  0.25807584  0.10994006    -0.30800
H1619       H  0.52562535  0.24606163  0.11554453     0.13400
H1620       H  0.96407464  0.26620145  0.12519964     0.14000
N1621       N  0.49400389  0.22869156  0.53255178    -0.35800
N1622       N  0.49366309  0.29801519  0.52754735    -0.56400
N1623       N  0.49862206  0.28654025  0.95770540    -0.35800
N1624       N  0.49602668  0.21506260  0.96419337    -0.56400
C1625       C  0.48316179  0.23201093  0.56176315     0.27800
C1626       C  0.48351132  0.19235616  0.52823801     0.27800
C1627       C  0.49400398  0.31662190  0.95897504     0.27800
C1628       C  0.50061396  0.27925610  0.92691131     0.27800
C1629       C  0.49769361  0.29751693  0.55934000     0.36400
C1630       C  0.50014315  0.33248273  0.52016830     0.36400
C1631       C  0.00023977  0.18547203  0.97789625     0.36400
C1632       C  0.00407811  0.21988716  0.93750908     0.36400
C1633       C  0.46489432  0.19736312  0.57589614    -0.21100
C1634       C  0.46549864  0.17236823  0.55494152    -0.21100
C1635       C  0.49343230  0.32893405  0.92872211    -0.21100
C1636       C  0.49794180  0.30568453  0.90856520    -0.21100
C1637       C  0.50641218  0.33167678  0.57229110    -0.22200
C1638       C  0.50770605  0.35373769  0.54753828    -0.22200
C1639       C  0.00921131  0.17120953  0.95194903    -0.22200
C1640       C  0.01190819  0.19308595  0.92661023    -0.22200
C1641       C  0.49175539  0.26594799  0.57677276    -0.17500
C1642       C  0.99903247  0.18034984  0.50630183    -0.17500
C1643       C  0.50597920  0.25037119  0.91479374    -0.17500
C1644       C  0.49865377  0.34508623  0.48928541    -0.17500
H1645       H  0.45252256  0.19084012  0.59899979     0.15400
H1646       H  0.45429083  0.14296792  0.55927382     0.15400
H1647       H  0.49089721  0.35274065  0.92184790     0.15400
H1648       H  0.50010809  0.30893346  0.88331116     0.15400
H1649       H  0.51103711  0.33981653  0.59695883     0.13700
H1650       H  0.51388029  0.38233696  0.54947522     0.13700
H1651       H  0.01311877  0.14731016  0.95104325     0.13700
H1652       H  0.01924722  0.18976123  0.90294315     0.13700
H1653       H  0.51206436  0.25064065  0.51831076     0.26900
H1654       H  0.50324741  0.27369973  0.97672860     0.26900
N1655       N  0.51109098  0.21268164  0.70814452    -0.35800
N1656       N  0.50331559  0.20201541  0.77619250    -0.56400
N1657       N  0.50707963  0.27349323  0.78323734    -0.35800
N1658       N  0.51044954  0.28225358  0.71482455    -0.56400
C1659       C  0.50438882  0.17720555  0.71022940     0.27800
C1660       C  0.50604489  0.21879118  0.67749453     0.27800
C1661       C  0.49256912  0.25730231  0.81118093     0.27800
C1662       C  0.49999538  0.30179266  0.77956349     0.27800
C1663       C  0.50967117  0.17399497  0.76883415     0.36400
C1664       C  0.50391935  0.20412534  0.80808960     0.36400
C1665       C  0.51746731  0.28373629  0.68354944     0.36400
C1666       C  0.51884916  0.31701164  0.72381614     0.36400
C1667       C  0.49570100  0.16072186  0.68055773    -0.21100
C1668       C  0.49661213  0.18680166  0.65996317    -0.21100
C1669       C  0.47553728  0.27508751  0.82500876    -0.21100
C1670       C  0.48092741  0.30375032  0.80537674    -0.21100
C1671       C  0.51403767  0.15811681  0.79631885    -0.22200
C1672       C  0.51038524  0.17721928  0.82113252    -0.22200
C1673       C  0.53037772  0.31965099  0.67266592    -0.22200
C1674       C  0.53111684  0.34065401  0.69808302    -0.22200
C1675       C  0.50765780  0.15993756  0.73793322    -0.17500
C1676       C  0.51154287  0.25287976  0.66460687    -0.17500
C1677       C  0.51158783  0.32657655  0.75396389    -0.17500
C1678       C  0.49647108  0.22856624  0.82547680    -0.17500
H1679       H  0.48957986  0.13286998  0.67428694     0.15400
H1680       H  0.49148052  0.18257539  0.63482021     0.15400
H1681       H  0.46026945  0.26769875  0.84678878     0.15400
H1682       H  0.47122054  0.32325027  0.80933433     0.15400
H1683       H  0.51839394  0.13454515  0.79842480     0.13700
H1684       H  0.51164179  0.17142653  0.84587865     0.13700
H1685       H  0.53867466  0.32985191  0.64895565     0.13700
H1686       H  0.53921685  0.36987235  0.69753939     0.13700
H1687       H  0.52211847  0.23260895  0.72603991     0.26900
H1688       H  0.52448777  0.26843104  0.76919887     0.26900
O1689       O  0.51292376  0.46497988  0.51930162    -0.87600
C1690       C  0.55414133  0.02863999  0.94867692     0.88500
Mg1691     Mg  0.95603896  0.42198730  0.52283641     1.58100
O1692       O  0.54245207  0.07517295  0.51927655    -0.87300
O1693       O  0.55373647  0.01193824  0.55214036    -0.74600
C1694       C  0.85780060  0.99805723  0.99233149     0.93500
O1695       O  0.48593991  0.44341474  0.94516264    -0.74400
O1696       O  0.85485860  0.46722620  0.98652892    -0.81900
Mg1697     Mg  0.53818325  0.45982055  0.97586939     1.58000
C1698       C  0.49198711  0.14163505  0.50544663     0.93400
O1699       O  0.59803454  0.48433616  0.50155879    -0.80200
H1700       H  0.55220171  0.08963821  0.56497713    -0.05500
C1701       C  0.95883443  0.03600721  0.95302782     0.88400
O1702       O  0.93907098  0.45619107  0.55419263    -0.74700
O1703       O  0.55238069  0.01545180  0.97515876    -0.87500
O1704       O  0.52183137  0.14063388  0.50123557    -0.80300
C1705       C  0.62213651  0.13362925  0.98379300     0.93600
C1706       C  0.62788415  0.01261487  0.50958482     0.93400
Mg1707     Mg  0.94754632  0.05416835  0.51826856     1.58000
O1708       O  0.88839564  0.02785672  0.99844558    -0.80200
O1709       O  0.99828336  0.07118978  0.55161879    -0.74400
O1710       O  0.62087723  0.10251804  0.98752599    -0.80300
O1711       O  0.52346071  0.39969846  0.97825077    -0.82000
O1712       O  0.86509763  0.40550646  0.50819372    -0.80300
C1713       C  0.53245043  0.07976118  0.54537444     0.87900
O1714       O  0.93166744  0.49383061  0.52287974    -0.87500
O1715       O  0.97409223  0.04793846  0.97904521    -0.87600
O1716       O  0.93135976  0.50155497  0.94849177    -0.74600
Mg1717     Mg  0.58519721  0.05994565  0.51724100     1.58000
O1718       O  0.59273571  0.13569841  0.97984795    -0.82000
H1719       H  0.51903713  0.45766541  0.56523528    -0.05700
O1720       O  0.94211046  0.43674254  0.97821797    -0.87300
H1721       H  0.93067801  0.42393572  0.93236011    -0.05500
H1722       H  0.92219772  0.49182863  0.56917872    -0.05700
C1723       C  0.95117492  0.43324541  0.95138514     0.87800
C1724       C  0.52834610  0.47635938  0.54533225     0.88400
C1725       C  0.93029587  0.48106396  0.54944943     0.88500
H1726       H  0.96804962  0.05444090  0.93295254    -0.05700
O1727       O  0.54697051  0.05473969  0.94429833    -0.74700
Mg1728     Mg  0.89959313  0.45163777  0.98173745     1.58000
H1729       H  0.56144608  0.01741374  0.92876023    -0.05700
C1730       C  0.49278122  0.37034707  0.98375746     0.93400
O1731       O  0.89547532  0.37523388  0.52007272    -0.82000
C1732       C  0.86538666  0.37562446  0.51469421     0.93500
O1733       O  0.63000418  0.04403426  0.51345128    -0.81900
Mg1734     Mg  0.53157456  0.08967685  0.97658860     1.58200
O1735       O  0.96327562  0.37120777  0.99363910    -0.80300
O1736       O  0.96387953  0.11458360  0.51206437    -0.82000
O1737       O  0.99098117  0.03994450  0.77178093    -0.87600
C1738       C  0.93965806  0.46039389  0.69801342     0.88500
Mg1739     Mg  0.55002150  0.08337308  0.76883095     1.58100
O1740       O  0.96072774  0.43054979  0.76955438    -0.87300
O1741       O  0.95120713  0.49642766  0.79840614    -0.74600
C1742       C  0.64150619  0.99559622  0.73892371     0.93500
O1743       O  0.01005974  0.05099496  0.69731313    -0.74400
O1744       O  0.64287872  0.02655649  0.73470898    -0.81900
Mg1745     Mg  0.95927679  0.03388672  0.72883881     1.58000
C1746       C  0.51179343  0.36225255  0.75709303     0.93400
O1747       O  0.90447705  0.01943137  0.75229323    -0.80200
H1748       H  0.95486040  0.42167306  0.81607961    -0.05500
C1749       C  0.53719375  0.45932022  0.69973627     0.88400
O1750       O  0.56738620  0.05040025  0.80208127    -0.74700
O1751       O  0.94268194  0.47553255  0.72385545    -0.87500
O1752       O  0.97952137  0.36281832  0.75599380    -0.80300
C1753       C  0.87585863  0.35970257  0.73707631     0.93600
C1754       C  0.87461923  0.99041596  0.76046121     0.93400
Mg1755     Mg  0.55578984  0.45226740  0.76785125     1.58000
O1756       O  0.61019342  0.46822874  0.74206107    -0.80200
O1757       O  0.50511040  0.43292844  0.80003415    -0.74400
O1758       O  0.87714902  0.39083291  0.74018339    -0.80300
O1759       O  0.97476637  0.09449138  0.73301839    -0.82000
O1760       O  0.63870832  0.09596769  0.75384821    -0.80300
C1761       C  0.97297104  0.42919898  0.79599613     0.87900
O1762       O  0.57311710  0.01039873  0.77248920    -0.87500
O1763       O  0.52316939  0.44619611  0.72550234    -0.87600
O1764       O  0.56253442  0.98898791  0.69816765    -0.74600
Mg1765     Mg  0.91740280  0.44491059  0.76641874     1.58000
O1766       O  0.90501526  0.35736726  0.73379235    -0.82000
H1767       H  0.98821257  0.04756635  0.81804879    -0.05700
O1768       O  0.55441250  0.05545951  0.72749104    -0.87300
H1769       H  0.56079446  0.06529342  0.68113828    -0.05500
H1770       H  0.58414176  0.01515772  0.81894619    -0.05700
C1771       C  0.54250112  0.05742080  0.70111628     0.87800
C1772       C  0.97759964  0.02864142  0.79803675     0.88400
C1773       C  0.57559231  0.02492781  0.79855123     0.88500
H1774       H  0.52732178  0.44166123  0.67891302    -0.05700
O1775       O  0.94734643  0.43451319  0.69489596    -0.74700
Mg1776     Mg  0.59735682  0.04085111  0.72977185     1.58000
H1777       H  0.93089120  0.46979797  0.67751363    -0.05700
C1778       C  0.50618639  0.12362939  0.73557333     0.93400
O1779       O  0.61043111  0.12823268  0.76463518    -0.82000
C1780       C  0.63963672  0.12649853  0.75962610     0.93500
O1781       O  0.87138316  0.45912585  0.76228610    -0.81900
Mg1782     Mg  0.96521939  0.40229039  0.72861990     1.58200
O1783       O  0.53598771  0.12279549  0.74143572    -0.80300
O1784       O  0.54251682  0.39221196  0.76225414    -0.82000
N1785       N  0.78323873  0.01089379  0.53181164    -0.35800
N1786       N  0.71185036  0.00738061  0.53744542    -0.56400
N1787       N  0.70609914  0.00509775  0.96757832    -0.35800
N1788       N  0.77389853  0.00129810  0.96313551    -0.56400
C1789       C  0.77515380  0.99923014  0.56211240     0.27800
C1790       C  0.81010809  0.00373234  0.52222866     0.27800
C1791       C  0.67147449  0.99803973  0.97476076     0.27800
C1792       C  0.70654815  0.99993951  0.93599331     0.27800
C1793       C  0.71951467  0.00683234  0.56855094     0.36400
C1794       C  0.68180189  0.01204192  0.53562131     0.36400
C1795       C  0.80911998  0.00790916  0.96695818     0.36400
C1796       C  0.77118448  0.01119233  0.93324662     0.36400
C1797       C  0.79752661  0.98495407  0.57198246    -0.21100
C1798       C  0.81966298  0.98796041  0.54696697    -0.21100
C1799       C  0.64989880  0.98904872  0.94721512    -0.21100
C1800       C  0.67194745  0.99004368  0.92284958    -0.21100
C1801       C  0.69358736  0.01036605  0.58637372    -0.22200
C1802       C  0.66997635  0.01394818  0.56556698    -0.22200
C1803       C  0.82889107  0.02197230  0.93945708    -0.22200
C1804       C  0.80498122  0.02466211  0.91826029    -0.22200
C1805       C  0.74829656  0.00130732  0.58114913    -0.17500
C1806       C  0.82783603  0.01316911  0.49247843    -0.17500
C1807       C  0.73777806  0.00540328  0.91860472    -0.17500
C1808       C  0.66264892  0.01106437  0.50748454    -0.17500
H1809       H  0.79764454  0.97311362  0.59471898     0.15400
H1810       H  0.84043881  0.97943484  0.54708510     0.15400
H1811       H  0.62123780  0.98258386  0.94473941     0.15400
H1812       H  0.66348548  0.98445560  0.89822629     0.15400
H1813       H  0.69099105  0.00948486  0.61169278     0.13700
H1814       H  0.64606519  0.01640125  0.57181489     0.13700
H1815       H  0.85758241  0.02976558  0.93522631     0.13700
H1816       H  0.81172465  0.03557027  0.89459032     0.13700
H1817       H  0.77366837  0.02614716  0.51938131     0.26900
H1818       H  0.72908133  0.01656368  0.98284542     0.26900
N1819       N  0.80054369  0.00229158  0.72014348    -0.35800
N1820       N  0.72999761  0.00055091  0.71291604    -0.56400
N1821       N  0.71974802  0.99139996  0.78116641    -0.35800
N1822       N  0.78765211  0.98806460  0.78800519    -0.56400
C1823       C  0.79641207  0.00033298  0.68824254     0.27800
C1824       C  0.82580284  0.99187751  0.72769026     0.27800
C1825       C  0.68554273  0.98460276  0.77147891     0.27800
C1826       C  0.71741543  0.98135283  0.81188251     0.27800
C1827       C  0.74557668  0.01507463  0.68484923     0.36400
C1828       C  0.70178573  0.00765834  0.71635121     0.36400
C1829       C  0.82183828  0.99157004  0.78650868     0.36400
C1830       C  0.78048549  0.98827254  0.81902682     0.36400
C1831       C  0.81962129  0.98897014  0.67532538    -0.21100
C1832       C  0.83817775  0.98363555  0.70017960    -0.21100
C1833       C  0.66128726  0.97027060  0.79666644    -0.21100
C1834       C  0.68134786  0.96817946  0.82199119    -0.21100
C1835       C  0.72769688  0.03205764  0.67069423    -0.22200
C1836       C  0.69937087  0.02663904  0.69025833    -0.22200
C1837       C  0.83622343  0.99329929  0.81655528    -0.22200
C1838       C  0.81006384  0.99112258  0.83714796    -0.22200
C1839       C  0.77323764  0.00988925  0.67056873    -0.17500
C1840       C  0.83961928  0.99151083  0.75845870    -0.17500
C1841       C  0.74717236  0.98459508  0.83127571    -0.17500
C1842       C  0.67692457  0.99503257  0.74183911    -0.17500
H1843       H  0.82297760  0.98504019  0.65059291     0.15400
H1844       H  0.85860112  0.97478354  0.69817621     0.15400
H1845       H  0.63231806  0.96288448  0.79732671     0.15400
H1846       H  0.67050649  0.95809301  0.84523398     0.15400
H1847       H  0.73449336  0.04686821  0.64856506     0.13700
H1848       H  0.67961137  0.03594207  0.68567912     0.13700
H1849       H  0.86263733  0.99548579  0.82299153     0.13700
H1850       H  0.81254068  0.99084888  0.86253800     0.13700
H1851       H  0.78980919  0.01387660  0.73560110     0.26900
H1852       H  0.74427899  0.00625025  0.76876040     0.26900
N1853       N  0.70566616  0.22078972  0.52912571    -0.35800
N1854       N  0.77711557  0.28924967  0.53888576    -0.56400
N1855       N  0.78384718  0.28610005  0.97008463    -0.35800
N1856       N  0.71375742  0.21623865  0.96075948    -0.56400
C1857       C  0.71037610  0.21930259  0.56075268     0.27800
C1858       C  0.67734743  0.18701180  0.51955246     0.27800
C1859       C  0.81768133  0.31352530  0.98042924     0.27800
C1860       C  0.78765117  0.27765698  0.93993188     0.27800
C1861       C  0.76492615  0.28355033  0.56889171     0.36400
C1862       C  0.80711410  0.32406089  0.53807142     0.36400
C1863       C  0.67743944  0.18921305  0.96088607     0.36400
C1864       C  0.72213226  0.22685335  0.93042218     0.36400
C1865       C  0.68439802  0.18425717  0.57149103    -0.21100
C1866       C  0.66352522  0.16396915  0.54563543    -0.21100
C1867       C  0.84313115  0.32318589  0.95624753    -0.21100
C1868       C  0.82426023  0.30037368  0.93083718    -0.21100
C1869       C  0.78761994  0.31484198  0.58730335    -0.22200
C1870       C  0.81429749  0.34054253  0.56772448    -0.22200
C1871       C  0.66258131  0.18251264  0.93050055    -0.22200
C1872       C  0.69084281  0.20656175  0.91122442    -0.22200
C1873       C  0.73561742  0.24950211  0.58045148    -0.17500
C1874       C  0.65876664  0.16845343  0.98772860    -0.17500
C1875       C  0.75842070  0.25196920  0.91972531    -0.17500
C1876       C  0.82577925  0.33144040  0.01045695    -0.17500
H1877       H  0.68042648  0.17435449  0.59551757     0.15400
H1878       H  0.64041158  0.13561129  0.54624591     0.15400
H1879       H  0.87230797  0.34455225  0.95673031     0.15400
H1880       H  0.83601109  0.30106787  0.90802522     0.15400
H1881       H  0.78559560  0.31856140  0.61235170     0.13700
H1882       H  0.83688105  0.36784421  0.57466675     0.13700
H1883       H  0.63444390  0.16229895  0.92298314     0.13700
H1884       H  0.68832221  0.20914468  0.88606052     0.13700
H1885       H  0.71806001  0.24470054  0.51553418     0.26900
H1886       H  0.75891824  0.27669454  0.98176536     0.26900
N1887       N  0.72041099  0.20311387  0.71748712    -0.35800
N1888       N  0.72544185  0.21384416  0.78584494    -0.56400
N1889       N  0.79482531  0.28279465  0.77874395    -0.35800
N1890       N  0.78933245  0.27263499  0.71029420    -0.56400
C1891       C  0.68576948  0.17684772  0.72618507     0.27800
C1892       C  0.71899191  0.20846742  0.68601436     0.27800
C1893       C  0.78653247  0.28622958  0.80901029     0.27800
C1894       C  0.82130413  0.31698719  0.76907817     0.27800
C1895       C  0.69735528  0.17813578  0.78408039     0.36400
C1896       C  0.73676404  0.22057289  0.81640611     0.36400
C1897       C  0.78413276  0.26034448  0.68008141     0.36400
C1898       C  0.82446370  0.30182686  0.71257740     0.36400
C1899       C  0.66215592  0.16501545  0.69983490    -0.21100
C1900       C  0.68311442  0.18498428  0.67453648    -0.21100
C1901       C  0.80834338  0.32300089  0.81883800    -0.21100
C1902       C  0.83044669  0.34232832  0.79382707    -0.21100
C1903       C  0.69074023  0.16180955  0.81351969    -0.22200
C1904       C  0.71590264  0.18860986  0.83399731    -0.22200
C1905       C  0.81605601  0.28206848  0.66294743    -0.22200
C1906       C  0.84167032  0.30835443  0.68357205    -0.22200
C1907       C  0.67556393  0.16143570  0.75676577    -0.17500
C1908       C  0.74977935  0.23227210  0.66719737    -0.17500
C1909       C  0.83942239  0.32507311  0.73947834    -0.17500
C1910       C  0.76202448  0.25648396  0.82864705    -0.17500
H1911       H  0.63289954  0.14388753  0.69883364     0.15400
H1912       H  0.67303433  0.18225769  0.65043738     0.15400
H1913       H  0.80907900  0.33459330  0.84191847     0.15400
H1914       H  0.85120621  0.37166735  0.79425732     0.15400
H1915       H  0.66973486  0.13369687  0.81964473     0.12900
H1916       H  0.71824505  0.18453279  0.85888987     0.13700
H1917       H  0.82014211  0.27985131  0.63802904     0.13700
H1918       H  0.86926897  0.33049494  0.67756289     0.13700
H1919       H  0.74437765  0.21346175  0.73154056     0.26900
H1920       H  0.78628424  0.25795156  0.76660511     0.26900
C1921       C  0.75901684  0.26463863  0.86247189    -0.15600
C1922       C  0.76704956  0.24838583  0.88635115    -0.30800
H1923       H  0.74881229  0.28358546  0.86768822     0.13400
H1924       H  0.77835848  0.23032099  0.88136767     0.14000
C1925       C  0.73149164  0.24571543  0.61531793    -0.15600
C1926       C  0.74605398  0.22849422  0.63220308    -0.30800
H1927       H  0.72054113  0.26118681  0.62745015     0.13400
H1928       H  0.75950533  0.21536656  0.62015887     0.14000
C1929       C  0.74305043  0.98188102  0.86629229    -0.15600
C1930       C  0.73520547  0.00446917  0.88334003    -0.30800
H1931       H  0.75197973  0.46453008  0.87637696     0.13400
H1932       H  0.72729942  0.02278143  0.87145863     0.14000
C1933       C  0.74761868  0.99446879  0.61588917    -0.15600
C1934       C  0.77729067  0.01351673  0.63548471    -0.30800
H1935       H  0.71762608  0.47512865  0.62361242     0.13400
H1936       H  0.80461676  0.03213898  0.62591602     0.14000
C1937       C  0.51315599  0.25167107  0.88029419    -0.15600
C1938       C  0.49175397  0.22348727  0.86026868    -0.30800
H1939       H  0.53405585  0.27817081  0.87057673     0.13400
H1940       H  0.96459662  0.19644803  0.87299106     0.14000
C1941       C  0.51262451  0.25594303  0.62932860    -0.15600
C1942       C  0.49283482  0.26774178  0.61214865    -0.30800
H1943       H  0.52797262  0.24513613  0.61684288     0.13400
H1944       H  0.98140544  0.27826053  0.62840858     0.14000
N1945       N  0.49464633  0.71937205  0.03955337    -0.35800
N1946       N  0.49503862  0.78900218  0.03251366    -0.56400
N1947       N  0.50360521  0.79621794  0.46506494    -0.35800
N1948       N  0.50113653  0.72517383  0.46974285    -0.56400
C1949       C  0.50473990  0.73335598  0.06923319     0.27800
C1950       C  0.50171242  0.69102581  0.03700336     0.27800
C1951       C  0.49680846  0.82483063  0.46735853     0.27800
C1952       C  0.50281239  0.78820901  0.43398557     0.27800
C1953       C  0.49090957  0.78498802  0.06422975     0.36400
C1954       C  0.48849217  0.81678521  0.02423000     0.36400
C1955       C  0.00490572  0.69696755  0.47735363     0.36400
C1956       C  0.01131997  0.73365836  0.43820573     0.36400
C1957       C  0.51885595  0.71375728  0.08537215    -0.21100
C1958       C  0.51657174  0.68684185  0.06512392    -0.21100
C1959       C  0.49205739  0.83549819  0.43745703    -0.21100
C1960       C  0.49604967  0.81261654  0.41643592    -0.21100
C1961       C  0.48239499  0.81079149  0.07631180    -0.22200
C1962       C  0.48103826  0.83100331  0.05113244    -0.22200
C1963       C  0.01961235  0.68688405  0.45251022    -0.22200
C1964       C  0.02393862  0.71027579  0.42792067    -0.22200
C1965       C  0.49767556  0.76043435  0.08272261    -0.17500
C1966       C  0.99142593  0.66758063  0.00747896    -0.17500
C1967       C  0.50940593  0.76054590  0.42093404    -0.17500
C1968       C  0.49248285  0.83179558  0.99332903    -0.17500
H1969       H  0.52988491  0.71797446  0.10917914     0.15400
H1970       H  0.52502400  0.66657781  0.07048757     0.15400
H1971       H  0.48689440  0.85789967  0.43133993     0.15400
H1972       H  0.49479483  0.81452648  0.39109518     0.15400
H1973       H  0.47855463  0.81530992  0.10081086     0.13700
H1974       H  0.47595370  0.85410898  0.05281935     0.13700
H1975       H  0.02600397  0.66461511  0.45168023     0.13700
H1976       H  0.03493916  0.70987796  0.40501834     0.13700
H1977       H  0.47913631  0.72519517  0.02342071     0.26900
H1978       H  0.51209470  0.78548228  0.48337413     0.26900
N1979       N  0.51048273  0.72027452  0.21503469    -0.35800
N1980       N  0.50189487  0.70815261  0.28235108    -0.56400
N1981       N  0.50522804  0.77925515  0.28988126    -0.35800
N1982       N  0.51244031  0.79064614  0.22260933    -0.56400
C1983       C  0.50002864  0.68369776  0.21664728     0.27800
C1984       C  0.50430773  0.72714981  0.18497334     0.27800
C1985       C  0.49093358  0.76263208  0.31766129     0.27800
C1986       C  0.49697991  0.80675483  0.28626654     0.27800
C1987       C  0.50922270  0.68092251  0.27435857     0.36400
C1988       C  0.50500658  0.71146379  0.31418579     0.36400
C1989       C  0.52208123  0.79346907  0.19197486     0.36400
C1990       C  0.52002665  0.82493285  0.23201018     0.36400
C1991       C  0.48689793  0.66699591  0.18732556    -0.21100
C1992       C  0.48921560  0.69435071  0.16741676    -0.21100
C1993       C  0.47255071  0.77908131  0.33145118    -0.21100
C1994       C  0.47688832  0.80744308  0.31183364    -0.21100
C1995       C  0.51668370  0.66663618  0.30140532    -0.22200
C1996       C  0.51413345  0.68610398  0.32660993    -0.22200
C1997       C  0.53566076  0.82967989  0.18167608    -0.22200
C1998       C  0.53432572  0.84966264  0.20705512    -0.22200
C1999       C  0.50511638  0.66625590  0.24337389    -0.17500
C2000       C  0.51532489  0.76291526  0.17265636    -0.17500
C2001       C  0.50986816  0.83273403  0.26155478    -0.17500
C2002       C  0.49725351  0.73546837  0.33200744    -0.17500
H2003       H  0.47689019  0.63821400  0.18083356     0.15400
H2004       H  0.48052503  0.69032525  0.14287634     0.15400
H2005       H  0.45765526  0.77140768  0.35342551     0.15400
H2006       H  0.46653669  0.82638204  0.31597131     0.15400
H2007       H  0.52242538  0.64393518  0.30302179     0.13700
H2008       H  0.51778043  0.68150784  0.35123055     0.13700
H2009       H  0.54453348  0.84030560  0.15813272     0.13700
H2010       H  0.54188206  0.87873564  0.20680109     0.13700
H2011       H  0.52558966  0.74033471  0.23233467     0.26900
H2012       H  0.52381141  0.77540409  0.27634377     0.26900
O2013       O  0.50925902  0.95387197  0.02195122    -0.87600
C2014       C  0.55951154  0.54170113  0.44842609     0.88500
Mg2015     Mg  0.95127232  0.91045496  0.01961275     1.58100
O2016       O  0.53948029  0.56348224  0.02225165    -0.87300
O2017       O  0.55021130  0.49801085  0.04990853    -0.74600
C2018       C  0.85957734  0.50497466  0.48940929     0.93500
O2019       O  0.48932324  0.94851159  0.44917646    -0.74400
O2020       O  0.85924851  0.97917319  0.48594062    -0.81900
Mg2021     Mg  0.54167538  0.96779415  0.48053194     1.58000
C2022       C  0.49124446  0.63131878  0.01446935     0.93400
O2023       O  0.59381513  0.97292712  0.00150718    -0.80200
H2024       H  0.54925382  0.57425717  0.06854783    -0.05500
C2025       C  0.96190167  0.54324317  0.45138819     0.88400
O2026       O  0.93619937  0.94466763  0.05296918    -0.74700
O2027       O  0.55788009  0.52785755  0.47458199    -0.87500
O2028       O  0.52078021  0.62972251  0.01105393    -0.80300
C2029       C  0.62517923  0.64521569  0.48714019     0.93600
C2030       C  0.62401247  0.50229338  0.00507925     0.93400
Mg2031     Mg  0.94384248  0.54252304  0.02081207     1.58000
O2032       O  0.88994959  0.53531153  0.49479333    -0.80200
O2033       O  0.99671965  0.56018857  0.05146409    -0.74400
O2034       O  0.62518376  0.61475957  0.49102380    -0.80300
O2035       O  0.52726099  0.90789225  0.48542062    -0.82000
O2036       O  0.86142435  0.89678302  0.00672240    -0.80300
C2037       C  0.52951862  0.56604382  0.04900086     0.87900
O2038       O  0.92923920  0.98422031  0.02365326    -0.87500
O2039       O  0.97671652  0.55626506  0.47736777    -0.87600
O2040       O  0.93693754  0.01217083  0.44756130    -0.74600
Mg2041     Mg  0.58190577  0.54867100  0.01768859     1.58000
O2042       O  0.59533222  0.64617211  0.48284406    -0.82000
H2043       H  0.51625917  0.95011612  0.06835829    -0.05700
O2044       O  0.94502703  0.94625085  0.47868876    -0.87300
H2045       H  0.93684197  0.93602878  0.43225433    -0.05500
H2046       H  0.92097269  0.98072071  0.07021921    -0.05700
C2047       C  0.95598788  0.94415411  0.45223099     0.87800
C2048       C  0.52501112  0.96736954  0.04754317     0.88400
C2049       C  0.92817253  0.97031667  0.04968081     0.88500
H2050       H  0.97126693  0.56090929  0.43083558    -0.05700
O2051       O  0.55150090  0.56729729  0.44472499    -0.74700
Mg2052     Mg  0.90327073  0.96256757  0.48102704     1.58000
H2053       H  0.56725245  0.53134645  0.42818151    -0.05700
C2054       C  0.49729866  0.87884045  0.49309597     0.93400
O2055       O  0.89106820  0.86542797  0.01700717    -0.82000
C2056       C  0.86133670  0.86656812  0.01248841     0.93500
O2057       O  0.62626338  0.53336860  0.01103337    -0.81900
Mg2058     Mg  0.53535998  0.60022555  0.47853972     1.58200
O2059       O  0.96504230  0.87993001  0.49791353    -0.80300
O2060       O  0.95896097  0.60259426  0.01601824    -0.82000
O2061       O  0.98831075  0.54572514  0.27054249    -0.87600
C2062       C  0.94048544  0.96749918  0.20368397     0.88500
Mg2063     Mg  0.54850155  0.58772159  0.26862860     1.58100
O2064       O  0.96037273  0.93626677  0.27493986    -0.87300
O2065       O  0.95094877  0.00192431  0.30441089    -0.74600
C2066       C  0.64035090  0.50190996  0.23405267     0.93500
O2067       O  0.00660386  0.55814446  0.19596539    -0.74400
O2068       O  0.64164170  0.53295566  0.23042330    -0.81900
Mg2069     Mg  0.95597791  0.53952962  0.22814799     1.58000
C2070       C  0.51082224  0.86860843  0.26531089     0.93400
O2071       O  0.90178253  0.52380575  0.25313394    -0.80200
H2072       H  0.95469451  0.92713274  0.32145415    -0.05500
C2073       C  0.53613982  0.96180086  0.20472014     0.88400
O2074       O  0.56621540  0.55281935  0.29891861    -0.74700
O2075       O  0.94380974  0.98228377  0.22975366    -0.87500
O2076       O  0.97819990  0.86881429  0.26136326    -0.80300
C2077       C  0.87536105  0.86624883  0.24116949     0.93600
C2078       C  0.87199423  0.49379497  0.25952090     0.93400
Mg2079     Mg  0.55761492  0.95854142  0.27221756     1.58000
O2080       O  0.60986269  0.97117643  0.24429923    -0.80200
O2081       O  0.50860006  0.94257986  0.30588966    -0.74400
O2082       O  0.87715115  0.89761319  0.24433273    -0.80300
O2083       O  0.96879576  0.59905416  0.23305424    -0.82000
O2084       O  0.63720401  0.60191935  0.25224344    -0.80300
C2085       C  0.97265798  0.93453349  0.30127879     0.87900
O2086       O  0.57024459  0.51413813  0.26653399    -0.87500
O2087       O  0.52327306  0.95117611  0.23124738    -0.87600
O2088       O  0.56199130  0.49821623  0.19179521    -0.74600
Mg2089     Mg  0.91741062  0.95109733  0.27158307     1.58000
O2090       O  0.90439961  0.86359663  0.23826554    -0.82000
H2091       H  0.98536940  0.55322948  0.31683680    -0.05700
O2092       O  0.55380785  0.56358374  0.22484766    -0.87300
H2093       H  0.56042801  0.57657668  0.17901805    -0.05500
H2094       H  0.58266336  0.51619801  0.31256900    -0.05700
C2095       C  0.54197932  0.56717735  0.19893847     0.87800
C2096       C  0.97509588  0.53426064  0.29684387     0.88400
C2097       C  0.57373502  0.52724128  0.29334455     0.88500
H2098       H  0.52480419  0.94253610  0.18497193    -0.05700
O2099       O  0.94768119  0.94135012  0.20006851    -0.74700
Mg2100     Mg  0.59630000  0.54801624  0.22580197     1.58000
H2101       H  0.93188786  0.97744310  0.18343727    -0.05700
C2102       C  0.50415639  0.63021944  0.23975094     0.93400
O2103       O  0.60887882  0.63324551  0.26631294    -0.82000
C2104       C  0.63812541  0.63195854  0.26026619     0.93500
O2105       O  0.87228074  0.96630136  0.26660620    -0.81900
Mg2106     Mg  0.96492239  0.90859406  0.23365380     1.58200
O2107       O  0.53391400  0.62933593  0.24579133    -0.80300
O2108       O  0.54227369  0.89824363  0.26803538    -0.82000
N2109       N  0.77813989  0.50084263  0.03078403    -0.35800
N2110       N  0.70780181  0.49902797  0.03475374    -0.56400
N2111       N  0.70874192  0.51386260  0.46546819    -0.35800
N2112       N  0.77514753  0.50776046  0.46027518    -0.56400
C2113       C  0.76973730  0.49072671  0.06133779     0.27800
C2114       C  0.80422429  0.49210005  0.02236086     0.27800
C2115       C  0.67471470  0.50818596  0.47314570     0.27800
C2116       C  0.70810055  0.50769427  0.43392882     0.27800
C2117       C  0.71563429  0.50071953  0.06599620     0.36400
C2118       C  0.67800439  0.50384557  0.03187543     0.36400
C2119       C  0.81026254  0.51392384  0.46375194     0.36400
C2120       C  0.77178761  0.51657721  0.43013381     0.36400
C2121       C  0.79094483  0.47568957  0.07249549    -0.21100
C2122       C  0.81280715  0.47669229  0.04798684    -0.21100
C2123       C  0.65249846  0.49910791  0.44598232    -0.21100
C2124       C  0.67347727  0.49859953  0.42133954    -0.21100
C2125       C  0.69023677  0.50600495  0.08293477    -0.22200
C2126       C  0.66655279  0.50816051  0.06134315    -0.22200
C2127       C  0.82932540  0.52663874  0.43575692    -0.22200
C2128       C  0.80503261  0.52876014  0.41456274    -0.22200
C2129       C  0.74380975  0.49515658  0.07954225    -0.17500
C2130       C  0.82241865  0.50016224  0.99295164    -0.17500
C2131       C  0.73837394  0.51153555  0.41602692    -0.17500
C2132       C  0.65864318  0.50073228  0.00341508    -0.17500
H2133       H  0.79051009  0.46477676  0.09579084     0.15400
H2134       H  0.83284435  0.46722065  0.04900664     0.15400
H2135       H  0.62406742  0.49346097  0.44395829     0.15400
H2136       H  0.66430227  0.49250483  0.39689202     0.15400
H2137       H  0.68791263  0.50696366  0.10820230     0.13700
H2138       H  0.64280618  0.51121319  0.06687090     0.13700
H2139       H  0.85772340  0.53367477  0.43112004     0.13700
H2140       H  0.81123225  0.53862878  0.39056000     0.13700
H2141       H  0.76963450  0.51641318  0.01746650     0.26900
H2142       H  0.73201749  0.52491583  0.48034138     0.26900
N2143       N  0.79773483  0.50414025  0.21811126    -0.35800
N2144       N  0.72832806  0.50478716  0.21013454    -0.56400
N2145       N  0.71745438  0.49670460  0.27822006    -0.35800
N2146       N  0.78434371  0.49109952  0.28581621    -0.56400
C2147       C  0.79383978  0.50170625  0.18622789     0.27800
C2148       C  0.82327848  0.49428560  0.22611975     0.27800
C2149       C  0.68376437  0.49115954  0.26815737     0.27800
C2150       C  0.71442068  0.48641003  0.30894164     0.27800
C2151       C  0.74358392  0.51737730  0.18163123     0.36400
C2152       C  0.70059476  0.51270669  0.21272632     0.36400
C2153       C  0.81810751  0.49352683  0.28482192     0.36400
C2154       C  0.77628399  0.49035078  0.31671409     0.36400
C2155       C  0.81752894  0.49064329  0.17379224    -0.21100
C2156       C  0.83622524  0.48610868  0.19892986    -0.21100
C2157       C  0.65915329  0.47751134  0.29311969    -0.21100
C2158       C  0.67845662  0.47454709  0.31871381    -0.21100
C2159       C  0.72595998  0.53396241  0.16630525    -0.22200
C2160       C  0.69818407  0.53036514  0.18571762    -0.22200
C2161       C  0.83124625  0.49350139  0.31502892    -0.22200
C2162       C  0.80472258  0.49123455  0.33520913    -0.22200
C2163       C  0.77061283  0.51070111  0.16806221    -0.17500
C2164       C  0.83659672  0.49401127  0.25706249    -0.17500
C2165       C  0.74335821  0.48797885  0.32858037    -0.17500
C2166       C  0.67576626  0.50145236  0.23812420    -0.17500
H2167       H  0.82124990  0.48654381  0.14918135     0.15400
H2168       H  0.85699212  0.47766027  0.19733286     0.15400
H2169       H  0.63041974  0.47102991  0.29330184     0.15400
H2170       H  0.66719792  0.46468322  0.34189176     0.15400
H2171       H  0.73252198  0.54724904  0.14347948     0.13700
H2172       H  0.67862988  0.53976454  0.18042789     0.13700
H2173       H  0.85698314  0.49441274  0.32182881     0.13700
H2174       H  0.80618971  0.48962073  0.36057989     0.13700
H2175       H  0.78665654  0.51564564  0.23323959     0.26900
H2176       H  0.74219205  0.51068621  0.26597767     0.26900
N2177       N  0.70377123  0.71205874  0.03107461    -0.35800
N2178       N  0.77427943  0.78092303  0.03904928    -0.56400
N2179       N  0.78333897  0.79912479  0.47165204    -0.35800
N2180       N  0.71366994  0.73004825  0.46309450    -0.56400
C2181       C  0.70224662  0.71915509  0.06212726     0.27800
C2182       C  0.66883779  0.68620159  0.02136090     0.27800
C2183       C  0.81787211  0.82482559  0.48212615     0.27800
C2184       C  0.78651232  0.79011304  0.44150907     0.27800
C2185       C  0.76641033  0.77361101  0.06993599     0.36400
C2186       C  0.80712007  0.81326789  0.03769442     0.36400
C2187       C  0.67792285  0.70198869  0.46394389     0.36400
C2188       C  0.72062544  0.74086405  0.43268091     0.36400
C2189       C  0.66602763  0.69717755  0.07239880    -0.21100
C2190       C  0.64494372  0.67662691  0.04672559    -0.21100
C2191       C  0.84319833  0.83268134  0.45813296    -0.21100
C2192       C  0.82343682  0.81068116  0.43259619    -0.21100
C2193       C  0.79427869  0.80188305  0.08829040    -0.22200
C2194       C  0.82010171  0.82687561  0.06790454    -0.22200
C2195       C  0.66191708  0.69488097  0.43395209    -0.22200
C2196       C  0.68886393  0.71982368  0.41420163    -0.22200
C2197       C  0.73289514  0.74378921  0.08176107    -0.17500
C2198       C  0.66077470  0.68079833  0.49096830    -0.17500
C2199       C  0.75654771  0.76576671  0.42125920    -0.17500
C2200       C  0.82661763  0.84349311  0.51178794    -0.17500
H2201       H  0.65575051  0.69596197  0.09595422     0.15400
H2202       H  0.61545487  0.65625708  0.04698869     0.15400
H2203       H  0.87283389  0.85254756  0.45875025     0.15400
H2204       H  0.83488501  0.81046556  0.40985139     0.15400
H2205       H  0.79509599  0.80533287  0.11362105     0.13700
H2206       H  0.84521767  0.85247304  0.07457863     0.13700
H2207       H  0.63387037  0.67383430  0.42697396     0.13700
H2208       H  0.68521094  0.72214686  0.38917928     0.13700
H2209       H  0.72798089  0.72062107  0.01848767     0.26900
H2210       H  0.75860265  0.79157126  0.48315840     0.26900
N2211       N  0.72056024  0.70851100  0.21960572    -0.35800
N2212       N  0.72097955  0.72178488  0.28730980    -0.56400
N2213       N  0.79110218  0.79093494  0.28110096    -0.35800
N2214       N  0.78975998  0.77845651  0.21331785    -0.56400
C2215       C  0.68583472  0.68151028  0.22733404     0.27800
C2216       C  0.72099917  0.71251758  0.18779185     0.27800
C2217       C  0.78128096  0.79509920  0.31057933     0.27800
C2218       C  0.81846740  0.82475364  0.27155351     0.27800
C2219       C  0.69357382  0.68570684  0.28584026     0.36400
C2220       C  0.73088285  0.72965998  0.31810035     0.36400
C2221       C  0.78662222  0.76439930  0.18390523     0.36400
C2222       C  0.82503244  0.80730669  0.21663274     0.36400
C2223       C  0.66406057  0.66770144  0.20004680    -0.21100
C2224       C  0.68623909  0.68707249  0.17515194    -0.21100
C2225       C  0.80288670  0.83199242  0.32008657    -0.21100
C2226       C  0.82650282  0.85064372  0.29566528    -0.21100
C2227       C  0.68588263  0.67044893  0.31571874    -0.22200
C2228       C  0.70981108  0.69822315  0.33616007    -0.22200
C2229       C  0.82017485  0.78457663  0.16841683    -0.22200
C2230       C  0.84442591  0.81183332  0.18907634    -0.22200
C2231       C  0.67395223  0.66725122  0.25804512    -0.17500
C2232       C  0.75278886  0.73646248  0.16990158    -0.17500
C2233       C  0.83845797  0.83180184  0.24294901    -0.17500
C2234       C  0.75572626  0.76583157  0.33001734    -0.17500
H2235       H  0.63529530  0.64545543  0.19814401     0.15400
H2236       H  0.67770189  0.68206368  0.15055037     0.15400
H2237       H  0.80251556  0.84405338  0.34265248     0.15400
H2238       H  0.84757713  0.87986008  0.29620839     0.15400
H2239       H  0.66532637  0.64225232  0.32206359     0.12900
H2240       H  0.71172128  0.69518889  0.36130969     0.13700
H2241       H  0.82656222  0.78058804  0.14457436     0.13700
H2242       H  0.87275106  0.83305500  0.18397361     0.13700
H2243       H  0.74357828  0.72035549  0.23483966     0.26900
H2244       H  0.78299107  0.76570389  0.26973675     0.26900
C2245       C  0.75207133  0.77425112  0.36357052    -0.15600
C2246       C  0.76447619  0.76207278  0.38764581    -0.30800
H2247       H  0.73764421  0.78947682  0.36840941     0.13400
H2248       H  0.77985452  0.74782788  0.38270577     0.14000
C2249       C  0.72865010  0.74032089  0.11669682    -0.15600
C2250       C  0.75117682  0.73294456  0.13478339    -0.30800
H2251       H  0.70816659  0.74559135  0.12759111     0.13400
H2252       H  0.77212174  0.72875450  0.12339399     0.14000
C2253       C  0.73895707  0.48522091  0.36360401    -0.15600
C2254       C  0.73486104  0.51024239  0.38077651    -0.30800
H2255       H  0.75414881  0.97542321  0.37987522     0.13400
H2256       H  0.72961009  0.53048916  0.36898298     0.14000
C2257       C  0.74364726  0.49101360  0.11446608    -0.15600
C2258       C  0.77376033  0.51182493  0.13302112    -0.30800
H2259       H  0.71755759  0.97132418  0.12729764     0.13400
H2260       H  0.80076141  0.52973338  0.12259577     0.14000
C2261       C  0.51452452  0.76151859  0.38607730    -0.15600
C2262       C  0.49486841  0.73168773  0.36700023    -0.30800
H2263       H  0.53237639  0.78851924  0.37543092     0.13400
H2264       H  0.97552513  0.70399227  0.37619258     0.14000
C2265       C  0.52155864  0.76876487  0.13816370    -0.15600
C2266       C  0.49339498  0.76048373  0.11765188    -0.30800
H2267       H  0.54943454  0.77822316  0.12957482     0.13400
H2268       H  0.95773146  0.74932679  0.12390512     0.14000
N2269       N  0.49609516  0.72811397  0.53841670    -0.35800
N2270       N  0.49326224  0.79635915  0.53339994    -0.56400
N2271       N  0.49383269  0.78107229  0.96369449    -0.35800
N2272       N  0.49492004  0.71199693  0.97094747    -0.56400
C2273       C  0.48594711  0.73121963  0.56794331     0.27800
C2274       C  0.48690069  0.69211430  0.53420281     0.27800
C2275       C  0.49865872  0.81586539  0.96605961     0.27800
C2276       C  0.50155924  0.77625875  0.93360966     0.27800
C2277       C  0.49667417  0.79561205  0.56521040     0.36400
C2278       C  0.49813549  0.83031280  0.52630260     0.36400
C2279       C  0.98906029  0.67867325  0.97632319     0.36400
C2280       C  0.99396670  0.71327917  0.93606916     0.36400
C2281       C  0.47002171  0.69685460  0.58261139    -0.21100
C2282       C  0.47084452  0.67219334  0.56142172    -0.21100
C2283       C  0.50859203  0.83306608  0.93693292    -0.21100
C2284       C  0.51060266  0.80831755  0.91658988    -0.21100
C2285       C  0.50313383  0.82892485  0.57843205    -0.22200
C2286       C  0.50390205  0.85084765  0.55383766    -0.22200
C2287       C  0.98597115  0.65810452  0.94949713    -0.22200
C2288       C  0.98975183  0.68016553  0.92414230    -0.22200
C2289       C  0.49242049  0.76466586  0.58255479    -0.17500
C2290       C  0.99279154  0.67761125  0.50638044    -0.17500
C2291       C  0.49868838  0.74320526  0.92049854    -0.17500
C2292       C  0.49695855  0.84313594  0.49548994    -0.17500
H2293       H  0.45886187  0.69022409  0.60615583     0.15400
H2294       H  0.46114064  0.64306133  0.56587381     0.15400
H2295       H  0.51362619  0.86052003  0.93072902     0.15400
H2296       H  0.51746566  0.81348542  0.89188670     0.15400
H2297       H  0.50672377  0.83661479  0.60319213     0.13700
H2298       H  0.50856652  0.87890411  0.55601595     0.13700
H2299       H  0.98310017  0.63068726  0.94825827     0.13700
H2300       H  0.99051254  0.67259695  0.89992941     0.13700
H2301       H  0.51261457  0.75017318  0.52366903     0.26900
H2302       H  0.48238265  0.76070734  0.98084098     0.26900
N2303       N  0.50556868  0.71105111  0.71269361    -0.35800
N2304       N  0.49162381  0.69666568  0.78044913    -0.56400
N2305       N  0.49954371  0.77015673  0.78866453    -0.35800
N2306       N  0.50898888  0.78270007  0.72050917    -0.56400
C2307       C  0.50143002  0.67654287  0.71382529     0.27800
C2308       C  0.50831469  0.72099967  0.68197814     0.27800
C2309       C  0.48560584  0.75487945  0.81704017     0.27800
C2310       C  0.49601576  0.80079378  0.78578335     0.27800
C2311       C  0.49453842  0.66658978  0.77254769     0.36400
C2312       C  0.48893226  0.69657308  0.81230406     0.36400
C2313       C  0.51639554  0.78487002  0.68928682     0.36400
C2314       C  0.51595124  0.81685004  0.72985155     0.36400
C2315       C  0.50210243  0.66447855  0.68347631    -0.21100
C2316       C  0.50631435  0.69234150  0.66342459    -0.21100
C2317       C  0.47319168  0.77615288  0.83230768    -0.21100
C2318       C  0.47999244  0.80523943  0.81269559    -0.21100
C2319       C  0.49277665  0.64684919  0.79960965    -0.22200
C2320       C  0.48928716  0.66582282  0.82466544    -0.22200
C2321       C  0.52793856  0.82063105  0.67870180    -0.22200
C2322       C  0.52766803  0.84083838  0.70428798    -0.22200
C2323       C  0.49814253  0.65593970  0.74143028    -0.17500
C2324       C  0.51327895  0.75527817  0.67008641    -0.17500
C2325       C  0.50855501  0.82586488  0.76022513    -0.17500
C2326       C  0.48534417  0.72336285  0.83035355    -0.17500
H2327       H  0.49992924  0.63834305  0.67643333     0.15400
H2328       H  0.50828317  0.69149925  0.63806104     0.15400
H2329       H  0.46059413  0.77130437  0.85529718     0.15400
H2330       H  0.47384827  0.82717372  0.81775320     0.15400
H2331       H  0.49395127  0.62138698  0.80124523     0.13700
H2332       H  0.48723555  0.65776225  0.84913358     0.13700
H2333       H  0.53619154  0.83129259  0.65509676     0.13700
H2334       H  0.53477250  0.86978384  0.70390918     0.13700
H2335       H  0.50811908  0.72744382  0.73192513     0.26900
H2336       H  0.51466475  0.76286070  0.77389522     0.26900
O2337       O  0.51269045  0.96469038  0.52373981    -0.87600
C2338       C  0.55475893  0.53193085  0.94966195     0.88500
Mg2339     Mg  0.95268704  0.92206409  0.52161207     1.58100
O2340       O  0.54267085  0.57409621  0.51990195    -0.87300
O2341       O  0.55445491  0.50980390  0.54929082    -0.74600
C2342       C  0.85709732  0.49856048  0.99127568     0.93500
O2343       O  0.48453840  0.93829470  0.94810046    -0.74400
O2344       O  0.85607111  0.96707080  0.98686492    -0.81900
Mg2345     Mg  0.53767524  0.95751413  0.97846233     1.58000
C2346       C  0.49335348  0.64104427  0.50988141     0.93400
O2347       O  0.59699660  0.98268336  0.50499493    -0.80200
H2348       H  0.55075590  0.58465178  0.56632824    -0.05500
C2349       C  0.95734695  0.53518497  0.95184377     0.88400
O2350       O  0.93810283  0.95789056  0.55331923    -0.74700
O2351       O  0.55330089  0.51752567  0.97550316    -0.87500
O2352       O  0.52298163  0.63953268  0.50672712    -0.80300
C2353       C  0.62199739  0.63364644  0.98850448     0.93600
C2354       C  0.62900766  0.51426203  0.50583800     0.93400
Mg2355     Mg  0.94594052  0.55148519  0.51939588     1.58000
O2356       O  0.88787804  0.52815589  0.99735386    -0.80200
O2357       O  0.99825200  0.57041544  0.55132560    -0.74400
O2358       O  0.62114322  0.60280894  0.99227615    -0.80300
O2359       O  0.52322879  0.89714425  0.98377772    -0.82000
O2360       O  0.86310954  0.90905139  0.50767157    -0.80300
C2361       C  0.53169743  0.57643113  0.54628421     0.87900
O2362       O  0.93152281  0.99615807  0.52211971    -0.87500
O2363       O  0.97308357  0.54741188  0.97765619    -0.87600
O2364       O  0.93322788  0.00229945  0.94917753    -0.74600
Mg2365     Mg  0.58600712  0.56017288  0.51650949     1.58000
O2366       O  0.59255853  0.63565840  0.98519592    -0.82000
H2367       H  0.51914018  0.96074896  0.57022030    -0.05700
O2368       O  0.94347889  0.93633441  0.97805833    -0.87300
H2369       H  0.93305085  0.92386879  0.93203686    -0.05500
H2370       H  0.92321216  0.99496581  0.56857878    -0.05700
C2371       C  0.95304026  0.93275498  0.95143782     0.87800
C2372       C  0.52818294  0.97804753  0.54943727     0.88400
C2373       C  0.93029833  0.98348076  0.54871055     0.88500
H2374       H  0.96637026  0.55328468  0.93154974    -0.05700
O2375       O  0.54679165  0.55762725  0.94671419    -0.74700
Mg2376     Mg  0.90102723  0.95168227  0.98159498     1.58000
H2377       H  0.56214371  0.52186480  0.92901387    -0.05700
C2378       C  0.49291761  0.86777938  0.99046896     0.93400
O2379       O  0.89205330  0.87738138  0.51951610    -0.82000
C2380       C  0.86253010  0.87882347  0.51446359     0.93500
O2381       O  0.63121949  0.54556484  0.51055968    -0.81900
Mg2382     Mg  0.53184673  0.59036612  0.98170204     1.58200
O2383       O  0.96300031  0.86913437  0.99286922    -0.80300
O2384       O  0.96005518  0.61163070  0.51316926    -0.82000
O2385       O  0.98987047  0.54038749  0.76724114    -0.87600
C2386       C  0.94084861  0.96192372  0.70069267     0.88500
Mg2387     Mg  0.54464421  0.58183845  0.77012913     1.58100
O2388       O  0.96063868  0.92901950  0.77105371    -0.87300
O2389       O  0.95263572  0.99495970  0.80224322    -0.74600
C2390       C  0.64082736  0.49873428  0.73906911     0.93500
O2391       O  0.00705567  0.55005472  0.69249169    -0.74400
O2392       O  0.64188808  0.52974516  0.73605244    -0.81900
Mg2393     Mg  0.95701371  0.53314868  0.72483367     1.58000
C2394       C  0.51075097  0.86243687  0.76383545     0.93400
O2395       O  0.90271213  0.51911617  0.74918398    -0.80200
H2396       H  0.95273341  0.91641346  0.81691510    -0.05500
C2397       C  0.53685351  0.95570369  0.70300776     0.88400
O2398       O  0.56274008  0.54860638  0.80238919    -0.74700
O2399       O  0.94384358  0.97598678  0.72705715    -0.87500
O2400       O  0.97781508  0.86191606  0.75565382    -0.80300
C2401       C  0.87510061  0.85969537  0.73739440     0.93600
C2402       C  0.87265036  0.48977780  0.75639766     0.93400
Mg2403     Mg  0.55821728  0.95244292  0.77065199     1.58000
O2404       O  0.61076000  0.96546021  0.74291952    -0.80200
O2405       O  0.50930694  0.93667079  0.80435749    -0.74400
O2406       O  0.87691989  0.89048109  0.74402122    -0.80300
O2407       O  0.97134244  0.59326997  0.72886492    -0.82000
O2408       O  0.63469506  0.59748210  0.75893158    -0.80300
C2409       C  0.97160269  0.92520219  0.79729683     0.87900
O2410       O  0.56887196  0.50978772  0.77163951    -0.87500
O2411       O  0.52404020  0.94535965  0.72958073    -0.87600
O2412       O  0.56258152  0.49326723  0.69707571    -0.74600
Mg2413     Mg  0.91836442  0.94448293  0.76954135     1.58000
O2414       O  0.90391175  0.85729208  0.73206705    -0.82000
H2415       H  0.98711961  0.54942299  0.81324563    -0.05700
O2416       O  0.55188359  0.55717470  0.72798622    -0.87300
H2417       H  0.55913389  0.56845956  0.68187762    -0.05500
H2418       H  0.57946512  0.51289215  0.81813134    -0.05700
C2419       C  0.54024057  0.55923770  0.70149078     0.87800
C2420       C  0.97648273  0.52990117  0.79363925     0.88400
C2421       C  0.57096172  0.52325327  0.79811458     0.88500
H2422       H  0.52559991  0.93621281  0.68340533    -0.05700
O2423       O  0.94848040  0.93619234  0.69637412    -0.74700
Mg2424     Mg  0.59553719  0.54348747  0.73102225     1.58000
H2425       H  0.93242960  0.97240759  0.68070597    -0.05700
C2426       C  0.49868137  0.62066259  0.73828735     0.93400
O2427       O  0.60491288  0.62883971  0.76718622    -0.82000
C2428       C  0.63483418  0.62796798  0.76338351     0.93500
O2429       O  0.87328007  0.95984837  0.76688654    -0.81900
Mg2430     Mg  0.96491995  0.90218361  0.72894647     1.58200
O2431       O  0.52907343  0.62120315  0.74463114    -0.80300
O2432       O  0.54256163  0.89172923  0.76644234    -0.82000
N2433       N  0.78023896  0.50607562  0.52952188    -0.35800
N2434       N  0.71169187  0.50791631  0.53430901    -0.56400
N2435       N  0.70507841  0.50387579  0.96589761    -0.35800
N2436       N  0.77341696  0.50163944  0.96162932    -0.56400
C2437       C  0.77187027  0.49571827  0.56009425     0.27800
C2438       C  0.80616048  0.49723180  0.52070143     0.27800
C2439       C  0.67027860  0.49616736  0.97321180     0.27800
C2440       C  0.70526817  0.49793862  0.93441085     0.27800
C2441       C  0.71878404  0.50746279  0.56552463     0.36400
C2442       C  0.68261133  0.51398788  0.53193838     0.36400
C2443       C  0.80889296  0.50911497  0.96565708     0.36400
C2444       C  0.77043548  0.51093780  0.93159915     0.36400
C2445       C  0.79294011  0.48033206  0.57081467    -0.21100
C2446       C  0.81472110  0.48151219  0.54611143    -0.21100
C2447       C  0.64825260  0.48579777  0.94586976    -0.21100
C2448       C  0.67025654  0.48670223  0.92148477    -0.21100
C2449       C  0.69364363  0.51272825  0.58287940    -0.22200
C2450       C  0.67100257  0.51715754  0.56166117    -0.22200
C2451       C  0.82865987  0.52327599  0.93818251    -0.22200
C2452       C  0.80437774  0.52498206  0.91671615    -0.22200
C2453       C  0.74602956  0.50011322  0.57866701    -0.17500
C2454       C  0.82419207  0.50539230  0.49111173    -0.17500
C2455       C  0.73668659  0.50412765  0.91690578    -0.17500
C2456       C  0.66365032  0.51264497  0.50364934    -0.17500
H2457       H  0.79248335  0.46907575  0.59394562     0.15400
H2458       H  0.83460581  0.47183671  0.54683513     0.15400
H2459       H  0.61936707  0.47859816  0.94349573     0.15400
H2460       H  0.66151946  0.48026569  0.89697178     0.15400
H2461       H  0.69069461  0.51208933  0.60814507     0.13700
H2462       H  0.64765543  0.52073413  0.56753696     0.13700
H2463       H  0.85748092  0.53148009  0.93407433     0.13700
H2464       H  0.81095247  0.53549352  0.89292025     0.13700
H2465       H  0.77187841  0.52185287  0.51639345     0.26900
H2466       H  0.72825748  0.51644018  0.98089970     0.26900
N2467       N  0.79779945  0.50182118  0.71736431    -0.35800
N2468       N  0.72815666  0.50231205  0.71149554    -0.56400
N2469       N  0.71952659  0.49372500  0.77981289    -0.35800
N2470       N  0.78661759  0.48848875  0.78521852    -0.56400
C2471       C  0.79296500  0.49977650  0.68553411     0.27800
C2472       C  0.82311130  0.49124893  0.72433227     0.27800
C2473       C  0.68509383  0.48660143  0.77041766     0.27800
C2474       C  0.71710473  0.48198215  0.81003603     0.27800
C2475       C  0.74279667  0.51573443  0.68291568     0.36400
C2476       C  0.70058916  0.51027248  0.71551123     0.36400
C2477       C  0.82063710  0.49168046  0.78315524     0.36400
C2478       C  0.78023512  0.48913766  0.81636952     0.36400
C2479       C  0.81568556  0.48807722  0.67211796    -0.21100
C2480       C  0.83473169  0.48274139  0.69655541    -0.21100
C2481       C  0.66062218  0.47020375  0.79520211    -0.21100
C2482       C  0.68077580  0.46723035  0.82004095    -0.21100
C2483       C  0.72492628  0.53287553  0.66898552    -0.22200
C2484       C  0.69764007  0.52877988  0.68932113    -0.22200
C2485       C  0.83570126  0.49372410  0.81296583    -0.22200
C2486       C  0.81017502  0.49210283  0.83400405    -0.22200
C2487       C  0.76990143  0.50985797  0.66828224    -0.17500
C2488       C  0.83763039  0.49100257  0.75482072    -0.17500
C2489       C  0.74705947  0.48521384  0.82912913    -0.17500
C2490       C  0.67635205  0.49817227  0.74141222    -0.17500
H2491       H  0.81857435  0.48410740  0.64730685     0.15400
H2492       H  0.85502902  0.47379018  0.69410224     0.15400
H2493       H  0.63139926  0.46187210  0.79588042     0.15400
H2494       H  0.66985329  0.45556268  0.84291606     0.15400
H2495       H  0.73125826  0.54719189  0.64664343     0.13700
H2496       H  0.67812464  0.53850930  0.68521353     0.13700
H2497       H  0.86216874  0.49579152  0.81896117     0.13700
H2498       H  0.81330832  0.49229720  0.85936710     0.13700
H2499       H  0.78756491  0.51360969  0.73307663     0.26900
H2500       H  0.74412072  0.50973999  0.76773440     0.26900
N2501       N  0.70305722  0.72626191  0.53130407    -0.35800
N2502       N  0.77354715  0.79492696  0.54002072    -0.56400
N2503       N  0.78287182  0.78391684  0.97020898    -0.35800
N2504       N  0.71319032  0.71379421  0.96252607    -0.56400
C2505       C  0.70700001  0.72621926  0.56319216     0.27800
C2506       C  0.67541912  0.69192457  0.52221974     0.27800
C2507       C  0.81419693  0.81599727  0.97859603     0.27800
C2508       C  0.78398018  0.77860357  0.93868351     0.27800
C2509       C  0.76045179  0.79124004  0.56960387     0.36400
C2510       C  0.80324806  0.82976355  0.53810747     0.36400
C2511       C  0.68168254  0.68040480  0.96475549     0.36400
C2512       C  0.72626633  0.71556130  0.93321611     0.36400
C2513       C  0.68070308  0.69162127  0.57457374    -0.21100
C2514       C  0.66098222  0.67002496  0.54884510    -0.21100
C2515       C  0.83515118  0.83174913  0.95179360    -0.21100
C2516       C  0.81631739  0.80816282  0.92685817    -0.21100
C2517       C  0.78213696  0.82413123  0.58654258    -0.22200
C2518       C  0.80936837  0.84843810  0.56661002    -0.22200
C2519       C  0.67430104  0.66072644  0.93664433    -0.22200
C2520       C  0.70265485  0.68281816  0.91673936    -0.22200
C2521       C  0.73193100  0.75738220  0.58229418    -0.17500
C2522       C  0.65849548  0.66833527  0.99123656    -0.17500
C2523       C  0.75801444  0.74686246  0.92054203    -0.17500
C2524       C  0.82569415  0.83096077  0.00972054    -0.17500
H2525       H  0.67537196  0.68285952  0.59889844     0.15400
H2526       H  0.63793481  0.64165646  0.54986747     0.15400
H2527       H  0.86195671  0.85708077  0.95037653     0.15400
H2528       H  0.82614641  0.81198294  0.90294582     0.15400
H2529       H  0.77912084  0.83005013  0.61083899     0.13700
H2530       H  0.83142988  0.87639999  0.57254490     0.13700
H2531       H  0.65094493  0.63335372  0.93102449     0.13700
H2532       H  0.70527251  0.67535864  0.89284736     0.13700
H2533       H  0.71562650  0.74947620  0.51691475     0.26900
H2534       H  0.76196807  0.76679340  0.98529420     0.26900
N2535       N  0.71372940  0.70684184  0.72007810    -0.35800
N2536       N  0.72188913  0.71662981  0.78881930    -0.56400
N2537       N  0.79128603  0.78701395  0.77994044    -0.35800
N2538       N  0.78490559  0.77498933  0.71152996    -0.56400
C2539       C  0.68544976  0.67325563  0.72925748     0.27800
C2540       C  0.71687648  0.70549992  0.68832051     0.27800
C2541       C  0.79130674  0.78475988  0.81187611     0.27800
C2542       C  0.82613087  0.81309818  0.77138235     0.27800
C2543       C  0.68701706  0.68664121  0.78723129     0.36400
C2544       C  0.72684810  0.73068346  0.81845781     0.36400
C2545       C  0.77482605  0.76727223  0.68074122     0.36400
C2546       C  0.81791058  0.80733218  0.71246366     0.36400
C2547       C  0.67024844  0.65044295  0.70271511    -0.21100
C2548       C  0.68988984  0.67076961  0.67704478    -0.21100
C2549       C  0.82639531  0.81014643  0.82381012    -0.21100
C2550       C  0.84836107  0.82788412  0.79837540    -0.21100
C2551       C  0.67001089  0.68112998  0.81619374    -0.22200
C2552       C  0.69497701  0.70935650  0.83578066    -0.22200
C2553       C  0.80232263  0.79434661  0.66208484    -0.22200
C2554       C  0.82940467  0.81984658  0.68215369    -0.22200
C2555       C  0.67065143  0.66362174  0.76024439    -0.17500
C2556       C  0.74237757  0.73511934  0.66898534    -0.17500
C2557       C  0.83842592  0.82530432  0.74018470    -0.17500
C2558       C  0.76032449  0.76126226  0.83066317    -0.17500
H2559       H  0.64672268  0.62230466  0.70160265     0.15400
H2560       H  0.68466814  0.66100568  0.65279423     0.15400
H2561       H  0.83543401  0.81527248  0.84827780     0.15400
H2562       H  0.87747828  0.84937490  0.79970551     0.15400
H2563       H  0.64228870  0.65947417  0.82245682     0.12900
H2564       H  0.69004119  0.71382057  0.85995751     0.13700
H2565       H  0.80362771  0.79500758  0.63663490     0.13700
H2566       H  0.85494554  0.84439560  0.67518856     0.13700
H2567       H  0.72722212  0.73056795  0.73401327     0.26900
H2568       H  0.76791161  0.77442266  0.76529182     0.26900
C2569       C  0.76316512  0.76887600  0.86529578    -0.15600
C2570       C  0.76435615  0.74501753  0.88615230    -0.30800
H2571       H  0.76204162  0.79310631  0.87353569     0.13400
H2572       H  0.76471359  0.72061571  0.87723685     0.14000
C2573       C  0.72936239  0.75486641  0.61743898    -0.15600
C2574       C  0.73633712  0.73120022  0.63402991    -0.30800
H2575       H  0.72691316  0.77629205  0.63014773     0.13400
H2576       H  0.74006351  0.71027875  0.62182986     0.14000
C2577       C  0.74324909  0.48204532  0.86420388    -0.15600
C2578       C  0.73402033  0.50334524  0.88161930    -0.30800
H2579       H  0.75059975  0.96360761  0.87873341     0.13400
H2580       H  0.72483121  0.52079292  0.86999477     0.14000
C2581       C  0.74463932  0.49386005  0.61351561    -0.15600
C2582       C  0.77394221  0.51359725  0.63322272    -0.30800
H2583       H  0.72073793  0.97574600  0.62619180     0.13400
H2584       H  0.80127396  0.53226083  0.62367692     0.14000
C2585       C  0.50486120  0.74316757  0.88573372    -0.15600
C2586       C  0.47978720  0.71787545  0.86514326    -0.30800
H2587       H  0.52959049  0.76695568  0.87628685     0.13400
H2588       H  0.95942425  0.69552094  0.87001410     0.14000
C2589       C  0.51638296  0.76010599  0.63514444    -0.15600
C2590       C  0.49272466  0.76646875  0.61773032    -0.30800
H2591       H  0.53575363  0.75408596  0.62308745     0.13400
H2592       H  0.96535841  0.77197970  0.62617407     0.14000
loop_ 
_geom_bond_atom_site_label_1 
_geom_bond_atom_site_label_2 
_geom_bond_distance 
_geom_bond_site_symmetry_2 
_ccdc_geom_bond_type 
N1            C6   1.357       .  A
N1            C5   1.355       .  A
N1           H33   1.040   1_655  S
N2            C9   1.352       .  A
N2           C10   1.352       .  A
N3            C8   1.354       .  A
N3            C7   1.354       .  A
N3           H34   1.035       .  S
N4         C1307   1.353       .  A
N4         C1308   1.355       .  A
C5           C13   1.384       .  A
C5           C21   1.418       .  A
C6           C14   1.387       .  A
C6         C1318   1.418       .  A
C7           C15   1.384   1_455  A
C7          C348   1.412       .  A
C8           C23   1.420       .  A
C8           C16   1.388       .  A
C9           C21   1.411       .  A
C9           C17   1.384       .  A
C10          C24   1.420   1_554  A
C10          C18   1.390       .  A
C11        N1300   1.354       .  A
C11          C19   1.389       .  A
C11         C346   1.423       .  A
C12        N1300   1.356       .  A
C12          C20   1.384       .  A
C12        C1319   1.422       .  A
C13          C14   1.375       .  A
C13          H25   1.081       .  S
C14          H26   1.081       .  S
C15          C16   1.370   1_655  A
C15          H27   1.082       .  S
C16          H28   1.077   1_455  S
C17          C18   1.371       .  A
C17          H29   1.082       .  S
C18          H30   1.083       .  S
C19          C20   1.373       .  A
C19          H31   1.081       .  S
C20          H32   1.080       .  S
C21         C322   1.492       .  S
C22        C1302   1.416       .  A
C22         C335   1.423   1_554  A
C22        C1374   1.489       .  S
C23        C1308   1.421       .  A
C23         C317   1.496       .  S
C24         C331   1.415       .  A
C24         C434   1.478       .  S
N35          C40   1.353       .  A
N35          C39   1.355       .  A
N35          H67   1.032       .  S
N36          C43   1.353       .  A
N36          C44   1.353       .  A
N37          C42   1.355       .  A
N37          C41   1.355   1_455  A
N37          H68   1.041       .  S
N38          C45   1.356       .  A
N38          C46   1.354       .  A
C39          C47   1.384   1_455  A
C39          C55   1.413       .  A
C40          C56   1.421       .  A
C40          C48   1.390       .  A
C41          C49   1.385       .  A
C41          C58   1.418       .  A
C42          C57   1.411       .  A
C42          C50   1.385   1_455  A
C43          C55   1.420       .  A
C43          C51   1.389       .  A
C44          C58   1.413   1_455  A
C44          C52   1.384       .  A
C45          C53   1.386       .  A
C45          C56   1.422       .  A
C46          C54   1.387       .  A
C46          C57   1.419       .  A
C47          C48   1.371   1_655  A
C47          H59   1.082       .  S
C48          H60   1.078       .  S
C49          C50   1.375       .  A
C49          H61   1.080       .  S
C50          H62   1.082       .  S
C51          C52   1.372       .  A
C51          H63   1.082       .  S
C52          H64   1.081       .  S
C53          C54   1.375       .  A
C53          H65   1.081       .  S
C54          H66   1.083       .  S
C55         C158   1.481       .  S
C56         C321   1.491       .  S
C57         C126   1.482       .  S
C58         C318   1.496       .  S
O69         C104   1.234       .  S
O69       Mg1367   2.151   1_455  S
O69        Mg401   2.166   1_554  S
C70         H109   1.081       .  S
C70          O83   1.234       .  S
C70         O107   1.268       .  A
Mg71       O1365   2.146       .  S
Mg71        O424   2.156   1_554  S
Mg71        O111   2.248       .  S
Mg71         O82   2.305       .  S
Mg71        O439   2.286   1_554  S
O72          C93   1.234       .  S
O72         Mg97   2.158       .  S
O72        Mg438   2.153   1_554  S
O73         C752   1.269       .  A
O73         Mg97   2.303   1_565  S
C74         C510   1.480       .  S
C74          O88   1.271       .  A
C74         O724   1.270   1_545  A
O75        C1399   1.268       .  A
O75         Mg77   2.294   1_655  S
O76         C722   1.270       .  A
O76        Mg108   2.260       .  S
Mg77        O393   2.173       .  S
Mg77        O731   2.156       .  S
Mg77         O91   2.257       .  S
Mg77        O403   2.288       .  S
C78        C1318   1.491       .  S
C78          O84   1.275   1_655  A
C78        O1412   1.273       .  A
O79         C734   1.270   1_556  A
O79        Mg401   2.276       .  S
H80          C93   1.081       .  S
C81         H106   1.081       .  S
C81          O95   1.235       .  S
C81         O744   1.271       .  A
O82         C105   1.270       .  A
O83        Mg725   2.145   1_545  S
O83        Mg421   2.166       .  S
O84        Mg438   2.308   1_554  S
C85         C254   1.476       .  S
C85          O98   1.271       .  A
C85          O90   1.270       .  A
C86         C188   1.476   1_545  S
C86         O113   1.270       .  A
C86         O727   1.270   1_545  A
Mg87        O742   2.174   1_545  S
Mg87        O419   2.161   1_554  S
Mg87         O89   2.307       .  S
Mg87        O116   2.274       .  S
Mg87        O412   2.296   1_554  S
O88        Mg411   2.293       .  S
O89        C1389   1.270       .  A
O90        Mg421   2.274       .  S
O91         C110   1.269       .  A
O92         C112   1.273       .  A
O92        Mg432   2.304   1_554  S
C93        O1385   1.270   1_455  A
O94         C105   1.235       .  S
O94        Mg735   2.160       .  S
O94        Mg432   2.167   1_554  S
O95        Mg411   2.159       .  S
O95       Mg1410   2.165       .  S
O96         C729   1.269       .  A
O96        Mg108   2.303       .  S
Mg97        O407   2.164   1_554  S
Mg97        O113   2.259       .  S
Mg97        O414   2.298   1_554  S
O98        Mg114   2.267       .  S
H99         C104   1.081       .  S
O100        C103   1.233       .  S
O100       Mg108   2.156       .  S
O100       Mg395   2.167       .  S
H101        C103   1.081       .  S
H102        C105   1.081       .  S
C103       O1371   1.268       .  A
C104        O721   1.269       .  A
O107       Mg114   2.297       .  S
Mg108       O418   2.159       .  S
Mg108       O416   2.286       .  S
C110        C348   1.478       .  S
C110       O1411   1.273   1_455  A
O111        C112   1.268       .  A
C112        C580   1.476       .  S
Mg114       O396   2.165       .  S
Mg114      O1391   2.169   1_455  S
Mg114       O408   2.288       .  S
O115       C1406   1.271       .  A
O115       Mg395   2.286       .  S
O116       C1374   1.271       .  A
O117        C152   1.233       .  S
O117       Mg125   2.166       .  S
O117      Mg1415   2.159       .  S
C118        H157   1.081       .  S
C118        O131   1.234       .  S
C118        O155   1.270       .  A
Mg119       O148   2.160       .  S
Mg119      O1413   2.156   1_455  S
Mg119       O163   2.297       .  S
Mg119       O159   2.259       .  S
Mg119       O130   2.307       .  S
O120        C141   1.234       .  S
O120       Mg162   2.159       .  S
O120       Mg145   2.158       .  S
O121        C800   1.269       .  A
O121       Mg145   2.299       .  S
C122        C222   1.486   1_545  S
C122        O124   1.271       .  A
C122        O784   1.274   1_545  A
O123       C1447   1.268       .  A
O123       Mg125   2.299       .  S
O124       Mg156   2.270       .  S
Mg125       O779   2.151   1_545  S
Mg125       O139   2.251       .  S
Mg125       O127   2.293       .  S
C126        O164   1.273       .  A
C126       O1428   1.272   1_455  A
O127        C134   1.273   1_545  A
H128        C141   1.081       .  S
C129        H154   1.081       .  S
C129        O143   1.234       .  S
C129        O792   1.270       .  A
O130        C153   1.270       .  A
O131       Mg145   2.163       .  S
O131       Mg773   2.158       .  S
O132       C1422   1.273       .  A
O132       Mg162   2.302       .  S
C133        C289   1.480       .  S
C133        O146   1.272       .  A
C133        O138   1.271       .  A
C134        C220   1.481       .  S
C134        O809   1.271       .  A
Mg135       O143   2.157       .  S
Mg135       O790   2.162       .  S
Mg135       O136   2.307       .  S
Mg135       O137   2.304       .  S
Mg135       O164   2.282       .  S
O136        C770   1.275       .  A
O137       C1437   1.269   1_455  A
O138       Mg145   2.288       .  S
O139       C1454   1.270       .  A
O140        C160   1.275       .  A
O140       Mg156   2.310       .  S
C141       O1433   1.269       .  A
O142        C153   1.234       .  S
O142       Mg156   2.150       .  S
O142       Mg783   2.158   1_545  S
O143      Mg1458   2.161   1_455  S
O144        C777   1.271       .  A
O144       Mg156   2.312   1_565  S
Mg145       O161   2.268       .  S
O146       Mg162   2.280       .  S
H147        C152   1.081       .  S
O148        C151   1.234       .  S
O148       Mg156   2.158       .  S
H149        C151   1.081       .  S
H150        C153   1.081       .  S
C151       O1419   1.269       .  A
C152        O769   1.268       .  A
O155       Mg162   2.305       .  S
C158        O163   1.272       .  A
C158       O1435   1.269   1_455  A
O159        C160   1.270       .  A
C160        C287   1.484       .  S
O161        C782   1.270       .  A
Mg162      O1439   2.167       .  S
N165        C170   1.356       .  A
N165        C169   1.358       .  A
N165        H197   1.038   1_565  S
N166        C173   1.352       .  A
N166        C174   1.353   1_565  A
N167        C172   1.357       .  A
N167        C171   1.353       .  A
N167        H198   1.036       .  S
N168        C175   1.350       .  A
N168        C176   1.350       .  A
C169        C177   1.386       .  A
C169        C185   1.424       .  A
C170        C186   1.422   1_554  A
C170        C178   1.388       .  A
C171        C179   1.390   1_545  A
C171        C512   1.422       .  A
C172        C187   1.418       .  A
C172        C180   1.385   1_545  A
C173        C185   1.418       .  A
C173        C181   1.388   1_565  A
C174        C188   1.409   1_545  A
C174        C182   1.383       .  A
C175        C183   1.384       .  A
C175        C510   1.406       .  A
C176        C184   1.385       .  A
C176        C187   1.413       .  A
C177        C178   1.380       .  A
C177        H189   1.082       .  S
C178        H190   1.082       .  S
C179        C180   1.376       .  A
C179        H191   1.082       .  S
C180        H192   1.082       .  S
C181        C182   1.367       .  A
C181        H193   1.077       .  S
C182        H194   1.082       .  S
C183        C184   1.371       .  A
C183        H195   1.082       .  S
C184        H196   1.081       .  S
C185        C313   1.499       .  S
C186        C499   1.407   1_565  A
C186        C398   1.478       .  S
C187        C310   1.497       .  S
C188        C495   1.418   1_554  A
N199        C204   1.354   1_545  A
N199        C203   1.357   1_545  A
N199        H231   1.038       .  S
N200        C207   1.353       .  A
N200        C208   1.354       .  A
N201        C206   1.357       .  A
N201        C205   1.356       .  A
N201        H232   1.037   1_565  S
N202        C209   1.354       .  A
N202        C210   1.353       .  A
C203        C211   1.385       .  A
C203        C219   1.416   1_565  A
C204        C220   1.420       .  A
C204        C212   1.389       .  A
C205        C213   1.391       .  A
C205        C222   1.424       .  A
C206        C221   1.420       .  A
C206        C214   1.385       .  A
C207        C219   1.416       .  A
C207        C215   1.383       .  A
C208        C222   1.414   1_545  A
C208        C216   1.386       .  A
C209        C217   1.383   1_565  A
C209        C220   1.411       .  A
C210        C218   1.389   1_565  A
C210        C221   1.419       .  A
C211        C212   1.375       .  A
C211        H223   1.082       .  S
C212        H224   1.083       .  S
C213        C214   1.376       .  A
C213        H225   1.081       .  S
C214        H226   1.082       .  S
C215        C216   1.374       .  A
C215        H227   1.080       .  S
C216        H228   1.082       .  S
C217        C218   1.370       .  A
C217        H229   1.082       .  S
C218        H230   1.079       .  S
C219        C314   1.501       .  S
C221        C309   1.496       .  S
N233        C238   1.353       .  A
N233        C237   1.357       .  A
N233        H265   1.039       .  S
N234        C241   1.349       .  A
N234        C242   1.350       .  A
N235        C240   1.362       .  A
N235        C239   1.356       .  A
N235        H266   1.035       .  S
N236        C243   1.350       .  A
N236        C244   1.351       .  A
C237        C245   1.386       .  A
C237        C253   1.420       .  A
C238        C246   1.389       .  A
C238        C578   1.421   1_554  A
C239        C247   1.389       .  A
C239        C256   1.425       .  A
C240        C255   1.426       .  A
C240        C248   1.386       .  A
C241        C253   1.413       .  A
C241        C249   1.388       .  A
C242        C250   1.384       .  A
C242        C580   1.406       .  A
C243        C251   1.383       .  A
C243        C254   1.408       .  A
C244        C252   1.389       .  A
C244        C255   1.418       .  A
C245        C246   1.379       .  A
C245        H257   1.081       .  S
C246        H258   1.082       .  S
C247        C248   1.375       .  A
C247        H259   1.083       .  S
C248        H260   1.081       .  S
C249        C250   1.374       .  A
C249        H261   1.081       .  S
C250        H262   1.082       .  S
C251        C252   1.367       .  A
C251        H263   1.083       .  S
C252        H264   1.079       .  S
C253        C305   1.491       .  S
C254        C562   1.423       .  A
C255        C302   1.498       .  S
C256        C566   1.409       .  A
C256        C436   1.475       .  S
N267        C272   1.356       .  A
N267        C271   1.355       .  A
N267        H299   1.036       .  S
N268        C275   1.353       .  A
N268        C276   1.353       .  A
N269        C274   1.355       .  A
N269        C273   1.357       .  A
N269        H300   1.037       .  S
N270        C277   1.352       .  A
N270        C278   1.352       .  A
C271        C279   1.392       .  A
C271        C287   1.425       .  A
C272        C288   1.418       .  A
C272        C280   1.385       .  A
C273        C281   1.385       .  A
C273        C290   1.416       .  A
C274        C289   1.422       .  A
C274        C282   1.390       .  A
C275        C287   1.414       .  A
C275        C283   1.386       .  A
C276        C290   1.417       .  A
C276        C284   1.385       .  A
C277        C285   1.387       .  A
C277        C288   1.418       .  A
C278        C286   1.384       .  A
C278        C289   1.411       .  A
C279        C280   1.375       .  A
C279        H291   1.081       .  S
C280        H292   1.082       .  S
C281        C282   1.376       .  A
C281        H293   1.081       .  S
C282        H294   1.083       .  S
C283        C284   1.374       .  A
C283        H295   1.082       .  S
C284        H296   1.081       .  S
C285        C286   1.371       .  A
C285        H297   1.078       .  S
C286        H298   1.082       .  S
C288        C306   1.493       .  S
C290        C301   1.496       .  S
C301        C302   1.346       .  D
C301        H303   1.086       .  S
C302        H304   1.087       .  S
C305        C306   1.346       .  D
C305        H307   1.087       .  S
C306        H308   1.086       .  S
C309        C310   1.350   1_565  D
C309        H959   1.087       .  S
C310        H312   1.086       .  S
H311        C957   1.087       .  S
C313        C314   1.348   1_565  D
C313        H963   1.087       .  S
C314        H316   1.086       .  S
H315        C961   1.087       .  S
C317        C318   1.347   1_455  D
C317        H319   1.087       .  S
C318       H1616   1.086       .  S
H320       C1614   1.086       .  S
C321        C322   1.344   1_455  D
C321        H323   1.087       .  S
C322       H1620   1.086       .  S
H324       C1618   1.086       .  S
N325        C330   1.353   1_455  A
N325        C329   1.352   1_455  A
N325        H357   1.040       .  S
N326        C333   1.354   1_655  A
N326        C334   1.352   1_655  A
N327        C332   1.353   1_655  A
N327        C331   1.354       .  A
N327        H358   1.030       .  S
N328       C1631   1.355   1_655  A
N328       C1632   1.356   1_655  A
C329        C337   1.385       .  A
C329        C345   1.412       .  A
C330       C1642   1.411       .  A
C330        C338   1.388       .  A
C331        C339   1.384       .  A
C332        C347   1.423       .  A
C332        C340   1.391       .  A
C333        C345   1.412   1_455  A
C333        C341   1.384       .  A
C334        C348   1.419       .  A
C334        C342   1.389       .  A
C335       N1624   1.355       .  A
C335        C343   1.389       .  A
C336       N1624   1.356       .  A
C336        C344   1.385       .  A
C336       C1643   1.422       .  A
C337        C338   1.373       .  A
C337        H349   1.082       .  S
C338        H350   1.082       .  S
C339        C340   1.372   1_655  A
C339        H351   1.082       .  S
C340        H352   1.080       .  S
C341        C342   1.373       .  A
C341        H353   1.082       .  S
C342        H354   1.083       .  S
C343        C344   1.372       .  A
C343        H355   1.081       .  S
C344        H356   1.080       .  S
C345        C646   1.492       .  S
C346       C1626   1.413       .  A
C346       C1698   1.483       .  S
C347       C1632   1.424       .  A
C347        C641   1.493       .  S
N359        C364   1.354       .  A
N359        C363   1.355       .  A
N359        H391   1.035       .  S
N360        C367   1.354   1_655  A
N360        C368   1.354       .  A
N361        C366   1.355   1_455  A
N361        C365   1.353   1_455  A
N361        H392   1.039       .  S
N362        C369   1.355       .  A
N362        C370   1.354       .  A
C363        C371   1.384       .  A
C363        C379   1.414       .  A
C364        C380   1.422       .  A
C364        C372   1.390       .  A
C365        C373   1.387       .  A
C365        C382   1.418       .  A
C366        C381   1.412   1_655  A
C366        C374   1.385       .  A
C367        C379   1.420       .  A
C367        C375   1.389       .  A
C368        C382   1.414       .  A
C368        C376   1.385   1_655  A
C369        C377   1.386       .  A
C369        C380   1.420       .  A
C370        C378   1.388       .  A
C370        C381   1.419       .  A
C371        C372   1.373       .  A
C371        H383   1.082       .  S
C372        H384   1.080       .  S
C373        C374   1.377       .  A
C373        H385   1.082       .  S
C374        H386   1.082       .  S
C375        C376   1.372       .  A
C375        H387   1.082       .  S
C376        H388   1.081       .  S
C377        C378   1.372       .  A
C377        H389   1.082       .  S
C378        H390   1.082       .  S
C379        C482   1.482       .  S
C380        C645   1.494       .  S
C381        C450   1.484       .  S
C382        C642   1.492       .  S
O393        C428   1.234       .  S
O393      Mg1691   2.161   1_455  S
C394        H433   1.081       .  S
C394        O407   1.235       .  S
C394        O431   1.271       .  A
Mg395      O1689   2.152       .  S
Mg395       O435   2.252       .  S
Mg395       O406   2.302       .  S
O396        C417   1.234       .  S
O396       Mg421   2.161       .  S
O397       C1076   1.266   1_545  A
O397       Mg421   2.289       .  S
C398       O1048   1.270       .  A
C398        O412   1.272   1_565  A
O399       C1723   1.268       .  A
O399       Mg401   2.296   1_655  S
O400       C1046   1.270       .  A
O400       Mg432   2.257       .  S
Mg401      O1055   2.150       .  S
Mg401       O415   2.254       .  S
C402       C1642   1.479       .  S
C402       O1736   1.269       .  A
C402        O408   1.271   1_655  A
O403       C1058   1.271       .  A
H404        C417   1.081       .  S
C405        H430   1.081       .  S
C405        O419   1.235       .  S
C405       O1068   1.272   1_545  A
O406        C429   1.268       .  A
O407      Mg1049   2.167   1_545  S
C409        C578   1.481       .  S
C409        O422   1.271       .  A
C409        O414   1.273       .  A
C410        C512   1.481       .  S
C410       O1051   1.272   1_545  A
C410        O437   1.272       .  A
Mg411      O1066   2.160   1_545  S
Mg411       O413   2.306       .  S
Mg411       O440   2.260       .  S
O413       C1713   1.270       .  A
O415        C434   1.269   1_455  A
O416        C436   1.271       .  A
C417       O1709   1.270   1_455  A
O418        C429   1.233       .  S
O418      Mg1059   2.154       .  S
O419      Mg1734   2.173       .  S
O420       C1053   1.269       .  A
O420       Mg432   2.304       .  S
Mg421       O437   2.272       .  S
O422       Mg438   2.275       .  S
H423        C428   1.081       .  S
O424        C427   1.234       .  S
O424       Mg432   2.150       .  S
H425        C427   1.081       .  S
H426        C429   1.081       .  S
C427       O1695   1.268       .  A
C428       O1045   1.270       .  A
O431       Mg438   2.309       .  S
C434       O1735   1.272       .  A
O435        C436   1.269       .  A
Mg438      O1715   2.160   1_455  S
O439       C1730   1.271       .  A
O440       C1698   1.269       .  A
O441        C476   1.234       .  S
O441      Mg1739   2.149       .  S
O441       Mg449   2.163       .  S
C442        H481   1.081       .  S
C442        O455   1.234       .  S
C442        O479   1.269       .  A
Mg443      O1737   2.148   1_455  S
Mg443       O472   2.155       .  S
Mg443       O487   2.306       .  S
Mg443       O483   2.260       .  S
Mg443       O454   2.309       .  S
O444        C465   1.234       .  S
O444       Mg486   2.156       .  S
O444       Mg469   2.154       .  S
O445       C1124   1.270       .  A
O445       Mg469   2.303       .  S
C446        C546   1.485       .  S
C446        O448   1.269   1_565  A
C446       O1108   1.273       .  A
O447       C1771   1.268       .  A
O447       Mg449   2.298       .  S
O448       Mg480   2.257       .  S
Mg449      O1103   2.149   1_545  S
Mg449       O463   2.263       .  S
Mg449       O451   2.287       .  S
C450        O488   1.272       .  A
C450       O1752   1.273   1_455  A
O451        C458   1.272   1_545  A
H452        C465   1.081       .  S
C453        H478   1.081       .  S
C453        O467   1.234       .  S
C453       O1116   1.270       .  A
O454        C477   1.270       .  A
O455      Mg1097   2.155       .  S
O455       Mg469   2.161       .  S
O456       C1746   1.272       .  A
O456       Mg486   2.293       .  S
C457        C613   1.485       .  S
C457        O470   1.272       .  A
C457        O462   1.272       .  A
C458        C544   1.476       .  S
C458       O1133   1.270       .  A
Mg459      O1114   2.164       .  S
Mg459       O467   2.153       .  S
Mg459       O460   2.300       .  S
Mg459       O461   2.305       .  S
Mg459       O488   2.276       .  S
O460       C1094   1.274       .  A
O461       C1761   1.270   1_455  A
O462       Mg469   2.297       .  S
O463       C1778   1.271       .  A
O464        C484   1.269       .  A
O464       Mg480   2.280       .  S
C465       O1757   1.269       .  A
O466        C477   1.235       .  S
O466      Mg1107   2.149   1_545  S
O466       Mg480   2.150       .  S
O467      Mg1782   2.156   1_455  S
O468       C1101   1.270       .  A
O468       Mg480   2.306   1_565  S
Mg469       O485   2.260       .  S
O470       Mg486   2.278       .  S
H471        C476   1.081       .  S
O472        C475   1.233       .  S
O472       Mg480   2.161       .  S
H473        C475   1.081       .  S
H474        C477   1.081       .  S
C475       O1743   1.268       .  A
C476       O1093   1.268   1_545  A
O479       Mg486   2.305       .  S
C482       O1759   1.271   1_455  A
C482        O487   1.274       .  A
O483        C484   1.270       .  A
C484        C611   1.473       .  S
O485       C1106   1.269       .  A
Mg486      O1763   2.170       .  S
N489        C494   1.357   1_545  A
N489        C493   1.356   1_545  A
N489        H521   1.038       .  S
N490        C497   1.353       .  A
N490        C498   1.354       .  A
N491        C496   1.356   1_545  A
N491        C495   1.352   1_545  A
N491        H522   1.038       .  S
N492        C499   1.349   1_565  A
N492        C500   1.350   1_565  A
C493        C501   1.387       .  A
C493        C509   1.423       .  A
C494        C510   1.421   1_565  A
C494        C502   1.388       .  A
C495        C503   1.390       .  A
C496        C511   1.413   1_565  A
C496        C504   1.385       .  A
C497        C509   1.421   1_545  A
C497        C505   1.390       .  A
C498        C512   1.413       .  A
C498        C506   1.383       .  A
C499        C507   1.386       .  A
C500        C508   1.385       .  A
C500        C511   1.412       .  A
C501        C502   1.376       .  A
C501        H513   1.081       .  S
C502        H514   1.082       .  S
C503        C504   1.376       .  A
C503        H515   1.082       .  S
C504        H516   1.082       .  S
C505        C506   1.369       .  A
C505        H517   1.079   1_545  S
C506        H518   1.083       .  S
C507        C508   1.373       .  A
C507        H519   1.082       .  S
C508        H520   1.081       .  S
C509        C637   1.493       .  S
C511        C634   1.493       .  S
N523        C528   1.353   1_545  A
N523        C527   1.356   1_545  A
N523        H555   1.037       .  S
N524        C531   1.350   1_565  A
N524        C532   1.352   1_565  A
N525        C530   1.355       .  A
N525        C529   1.357       .  A
N525        H556   1.037   1_565  S
N526        C533   1.352       .  A
N526        C534   1.352       .  A
C527        C535   1.385       .  A
C527        C543   1.414   1_565  A
C528        C544   1.418       .  A
C528        C536   1.389       .  A
C529        C537   1.390       .  A
C529        C546   1.425       .  A
C530        C545   1.419       .  A
C530        C538   1.385       .  A
C531        C543   1.413       .  A
C531        C539   1.384       .  A
C532        C546   1.412   1_545  A
C532        C540   1.387       .  A
C533        C541   1.382       .  A
C533        C544   1.407       .  A
C534        C542   1.389       .  A
C534        C545   1.417       .  A
C535        C536   1.376       .  A
C535        H547   1.081       .  S
C536        H548   1.083       .  S
C537        C538   1.376       .  A
C537        H549   1.081       .  S
C538        H550   1.082       .  S
C539        C540   1.371       .  A
C539        H551   1.081       .  S
C540        H552   1.081       .  S
C541        C542   1.369       .  A
C541        H553   1.083       .  S
C542        H554   1.079       .  S
C543        C638   1.493       .  S
C545        C633   1.492       .  S
N557        C562   1.356       .  A
N557        C561   1.358       .  A
N557        H589   1.037       .  S
N558        C565   1.351       .  A
N558        C566   1.350       .  A
N559        C564   1.354       .  A
N559        C563   1.353       .  A
N559        H590   1.040       .  S
N560        C567   1.351       .  A
N560        C568   1.350       .  A
C561        C569   1.385       .  A
C561        C577   1.420       .  A
C562        C570   1.389       .  A
C563        C571   1.389       .  A
C563        C580   1.418   1_556  A
C564        C579   1.413       .  A
C564        C572   1.386       .  A
C565        C577   1.414       .  A
C565        C573   1.389       .  A
C566        C574   1.385       .  A
C567        C575   1.384       .  A
C567        C578   1.410       .  A
C568        C576   1.387       .  A
C568        C579   1.414       .  A
C569        C570   1.375       .  A
C569        H581   1.081       .  S
C570        H582   1.083       .  S
C571        C572   1.377       .  A
C571        H583   1.082       .  S
C572        H584   1.082       .  S
C573        C574   1.367       .  A
C573        H585   1.081       .  S
C574        H586   1.083       .  S
C575        C576   1.376       .  A
C575        H587   1.082       .  S
C576        H588   1.080       .  S
C577        C629   1.491       .  S
C579        C626   1.485       .  S
N591        C596   1.355       .  A
N591        C595   1.353       .  A
N591        H623   1.038       .  S
N592        C599   1.350       .  A
N592        C600   1.349       .  A
N593        C598   1.356       .  A
N593        C597   1.358       .  A
N593        H624   1.038       .  S
N594        C601   1.351       .  A
N594        C602   1.352       .  A
C595        C603   1.388       .  A
C595        C611   1.416       .  A
C596        C612   1.414       .  A
C596        C604   1.386       .  A
C597        C605   1.386       .  A
C597        C614   1.421       .  A
C598        C613   1.425       .  A
C598        C606   1.390       .  A
C599        C611   1.403       .  A
C599        C607   1.381       .  A
C600        C614   1.416       .  A
C600        C608   1.390       .  A
C601        C609   1.386       .  A
C601        C612   1.416       .  A
C602        C610   1.386       .  A
C602        C613   1.412       .  A
C603        C604   1.375       .  A
C603        H615   1.083       .  S
C604        H616   1.081       .  S
C605        C606   1.378       .  A
C605        H617   1.082       .  S
C606        H618   1.081       .  S
C607        C608   1.370       .  A
C607        H619   1.083       .  S
C608        H620   1.077       .  S
C609        C610   1.375       .  A
C609        H621   1.082       .  S
C610        H622   1.082       .  S
C612        C630   1.489       .  S
C614        C625   1.493       .  S
C625        C626   1.342       .  D
C625        H627   1.087       .  S
C626        H628   1.086       .  S
C629        C630   1.343       .  D
C629        H631   1.087       .  S
C630        H632   1.086       .  S
C633        C634   1.347   1_565  D
C633       H1283   1.087       .  S
C634        H636   1.086       .  S
H635       C1281   1.087       .  S
C637        C638   1.347   1_565  D
C637       H1287   1.087       .  S
C638        H640   1.086       .  S
H639       C1285   1.087       .  S
C641        C642   1.345   1_455  D
C641        H643   1.087       .  S
C642       H1940   1.086       .  S
H644       C1938   1.086       .  S
C645        C646   1.348   1_455  D
C645        H647   1.087       .  S
C646       H1944   1.086       .  S
H648       C1942   1.086       .  S
N649        C654   1.350       .  A
N649        C653   1.354       .  A
N649        H681   1.040       .  S
N650        C657   1.357       .  A
N650        C658   1.354       .  A
N651        C656   1.353       .  A
N651        C655   1.354   1_455  A
N651        H682   1.036       .  S
N652       C1955   1.354   1_655  A
N652       C1956   1.354   1_655  A
C653        C661   1.390   1_655  A
C653        C669   1.417       .  A
C654       C1966   1.404       .  A
C654        C662   1.382   1_655  A
C655        C663   1.383       .  A
C655        C996   1.411       .  A
C656        C671   1.420       .  A
C656        C664   1.390   1_455  A
C657        C669   1.418       .  A
C657        C665   1.383       .  A
C658        C672   1.426   1_554  A
C658        C666   1.391       .  A
C659       N1948   1.353       .  A
C659        C667   1.389       .  A
C659        C994   1.419       .  A
C660       N1948   1.354       .  A
C660        C668   1.385       .  A
C660       C1967   1.418       .  A
C661        C662   1.370       .  A
C661        H673   1.077       .  S
C662        H674   1.083       .  S
C663        C664   1.372       .  A
C663        H675   1.083       .  S
C664        H676   1.078       .  S
C665        C666   1.375       .  A
C665        H677   1.082       .  S
C666        H678   1.081       .  S
C667        C668   1.372       .  A
C667        H679   1.081       .  S
C668        H680   1.081       .  S
C669        C970   1.497       .  S
C670       C1950   1.404       .  A
C670        C983   1.417   1_554  A
C670       C2022   1.474       .  S
C671       C1956   1.419       .  A
C671        C965   1.492       .  S
C672        C979   1.420       .  A
C672       C1082   1.488       .  S
N683        C688   1.354   1_455  A
N683        C687   1.353   1_455  A
N683        H715   1.041       .  S
N684        C691   1.351   1_655  A
N684        C692   1.353   1_655  A
N685        C690   1.352   1_455  A
N685        C689   1.350   1_455  A
N685        H716   1.042       .  S
N686        C693   1.352       .  A
N686        C694   1.351       .  A
C687        C695   1.385       .  A
C687        C703   1.412   1_655  A
C688        C704   1.417   1_655  A
C688        C696   1.387       .  A
C689        C697   1.386       .  A
C689        C706   1.413       .  A
C690        C705   1.408   1_655  A
C690        C698   1.385       .  A
C691        C703   1.418       .  A
C691        C699   1.390       .  A
C692        C706   1.411   1_455  A
C692        C700   1.384       .  A
C693        C701   1.385       .  A
C693        C704   1.411       .  A
C694        C702   1.388       .  A
C694        C705   1.415       .  A
C695        C696   1.378       .  A
C695        H707   1.082       .  S
C696        H708   1.080       .  S
C697        C698   1.378       .  A
C697        H709   1.081       .  S
C698        H710   1.082       .  S
C699        C700   1.375       .  A
C699        H711   1.082       .  S
C700        H712   1.082       .  S
C701        C702   1.376       .  A
C701        H713   1.082       .  S
C702        H714   1.082       .  S
C703        C806   1.478   1_455  S
C704        C969   1.490       .  S
C705        C774   1.478       .  S
C706        C966   1.491       .  S
O717        C752   1.234       .  S
O717      Mg2015   2.146   1_455  S
O717      Mg1049   2.155   1_554  S
C718        H757   1.081       .  S
C718        O731   1.234       .  S
C718        O755   1.270       .  A
Mg719      O2013   2.155       .  S
Mg719      O1072   2.158   1_554  S
Mg719      O1087   2.303   1_554  S
Mg719       O759   2.263       .  S
Mg719       O730   2.311       .  S
O720        C741   1.234       .  S
O720      Mg1086   2.148   1_554  S
O720       Mg745   2.149       .  S
O721       Mg745   2.302       .  S
C722       C1158   1.476       .  S
C722        O736   1.272       .  A
O723       C2047   1.269       .  A
O723       Mg725   2.299   1_655  S
O724       Mg756   2.267       .  S
Mg725      O1041   2.164       .  S
Mg725       O739   2.251       .  S
Mg725      O1051   2.291       .  S
C726       C1966   1.471       .  S
C726       O2060   1.268       .  A
C726        O732   1.269   1_655  A
O727      Mg1049   2.282   1_554  S
H728        C741   1.081       .  S
C729        H754   1.081       .  S
C729        O743   1.233       .  S
O730        C753   1.271       .  A
O731      Mg1069   2.155       .  S
O732      Mg1086   2.278   1_554  S
C733        C902   1.481       .  S
C733        O746   1.270       .  A
C733        O738   1.273       .  A
C734        C836   1.474       .  S
C734        O761   1.269       .  A
Mg735      O1067   2.157   1_554  S
Mg735      O1060   2.306   1_554  S
Mg735       O737   2.309       .  S
Mg735       O764   2.268       .  S
O736      Mg1059   2.292       .  S
O737       C2037   1.270       .  A
O738      Mg1069   2.302       .  S
O739        C758   1.269   1_455  A
O740        C760   1.275       .  A
O740      Mg1080   2.319   1_554  S
C741       O2033   1.270   1_455  A
O742        C753   1.234       .  S
O742      Mg1080   2.158   1_554  S
O743      Mg1059   2.151       .  S
O743      Mg2058   2.154       .  S
O744       Mg756   2.312   1_545  S
Mg745      O1055   2.158   1_554  S
Mg745      O1062   2.297   1_554  S
Mg745       O761   2.254       .  S
O746       Mg762   2.271       .  S
H747        C752   1.081       .  S
O748        C751   1.233       .  S
O748      Mg1043   2.166       .  S
O748       Mg756   2.158       .  S
H749        C751   1.081       .  S
H750        C753   1.081       .  S
C751       O2019   1.268       .  A
O755       Mg762   2.307       .  S
Mg756      O1066   2.150       .  S
Mg756      O1064   2.297       .  S
C758        C996   1.476       .  S
C758       O2059   1.273       .  A
O759        C760   1.270       .  A
C760       C1228   1.483       .  S
Mg762      O1044   2.154       .  S
Mg762      O2039   2.170   1_455  S
Mg762      O1056   2.296       .  S
O763       C2054   1.271       .  A
O763      Mg1043   2.286       .  S
O764       C2022   1.271       .  A
O765        C800   1.235       .  S
O765      Mg2063   2.150       .  S
O765       Mg773   2.167       .  S
C766        H805   1.081       .  S
C766        O779   1.234       .  S
C766        O803   1.269       .  A
Mg767      O2061   2.143   1_455  S
Mg767       O796   2.159       .  S
Mg767       O811   2.297       .  S
Mg767       O807   2.241       .  S
Mg767       O778   2.310       .  S
O768        C789   1.235       .  S
O768       Mg810   2.163       .  S
O768       Mg793   2.157       .  S
O769       Mg793   2.295   1_545  S
C770        C870   1.485       .  S
C770        O772   1.271       .  A
O771       C2095   1.269       .  A
O771       Mg773   2.303       .  S
O772       Mg804   2.272       .  S
Mg773       O787   2.268       .  S
Mg773       O775   2.291       .  S
C774        O812   1.270       .  A
C774       O2076   1.271   1_455  A
O775        C782   1.272       .  A
H776        C789   1.081       .  S
C777        H802   1.081       .  S
C777        O791   1.235       .  S
O778        C801   1.271       .  A
O779       Mg793   2.172       .  S
O780       C2070   1.272       .  A
O780       Mg810   2.300       .  S
C781        C937   1.475       .  S
C781        O794   1.270       .  A
C781        O786   1.272       .  A
C782        C868   1.479       .  S
Mg783       O791   2.149       .  S
Mg783       O784   2.310       .  S
Mg783       O785   2.311       .  S
Mg783       O812   2.269       .  S
O785       C2085   1.271   1_455  A
O786       Mg793   2.282       .  S
O787       C2102   1.271       .  A
O788        C808   1.272       .  A
O788       Mg804   2.294       .  S
C789       O2081   1.271       .  A
O790        C801   1.235       .  S
O790       Mg804   2.158       .  S
O791      Mg2106   2.165   1_455  S
O792       Mg804   2.307       .  S
Mg793       O809   2.272       .  S
O794       Mg810   2.260       .  S
H795        C800   1.081       .  S
O796        C799   1.234       .  S
O796       Mg804   2.166       .  S
H797        C799   1.081       .  S
H798        C801   1.081       .  S
C799       O2067   1.269       .  A
O803       Mg810   2.299       .  S
C806       O2083   1.268       .  A
C806        O811   1.272   1_655  A
O807        C808   1.267       .  A
C808        C935   1.479       .  S
Mg810      O2087   2.158       .  S
N813        C818   1.355       .  A
N813        C817   1.357       .  A
N813        H845   1.039       .  S
N814        C821   1.351       .  A
N814        C822   1.351       .  A
N815        C820   1.357       .  A
N815        C819   1.353       .  A
N815        H846   1.036       .  S
N816        C823   1.350       .  A
N816        C824   1.349       .  A
C817        C825   1.386       .  A
C817        C833   1.420       .  A
C818        C834   1.418   1_554  A
C818        C826   1.387       .  A
C819        C827   1.389       .  A
C819       C1160   1.420       .  A
C820        C835   1.417       .  A
C820        C828   1.386       .  A
C821        C833   1.415       .  A
C821        C829   1.388       .  A
C822        C836   1.408       .  A
C822        C830   1.384       .  A
C823        C831   1.385       .  A
C823       C1158   1.405       .  A
C824        C832   1.386       .  A
C824        C835   1.412       .  A
C825        C826   1.376       .  A
C825        H837   1.081       .  S
C826        H838   1.082       .  S
C827        C828   1.377       .  A
C827        H839   1.082       .  S
C828        H840   1.082       .  S
C829        C830   1.367       .  A
C829        H841   1.078       .  S
C830        H842   1.082       .  S
C831        C832   1.371       .  A
C831        H843   1.082       .  S
C832        H844   1.081       .  S
C833        C961   1.493       .  S
C834       C1147   1.407       .  A
C834       C1046   1.477       .  S
C835        C958   1.494       .  S
C836       C1143   1.419   1_554  A
N847        C852   1.353       .  A
N847        C851   1.355       .  A
N847        H879   1.039       .  S
N848        C855   1.350       .  A
N848        C856   1.352       .  A
N849        C854   1.356       .  A
N849        C853   1.357       .  A
N849        H880   1.039       .  S
N850        C857   1.354       .  A
N850        C858   1.352       .  A
C851        C859   1.386       .  A
C851        C867   1.415       .  A
C852        C868   1.418       .  A
C852        C860   1.389       .  A
C853        C861   1.389       .  A
C853        C870   1.423       .  A
C854        C869   1.420       .  A
C854        C862   1.386       .  A
C855        C867   1.415       .  A
C855        C863   1.385       .  A
C856        C870   1.409       .  A
C856        C864   1.385       .  A
C857        C865   1.382       .  A
C857        C868   1.409       .  A
C858        C866   1.390       .  A
C858        C869   1.419       .  A
C859        C860   1.376       .  A
C859        H871   1.081       .  S
C860        H872   1.083       .  S
C861        C862   1.375       .  A
C861        H873   1.081       .  S
C862        H874   1.082       .  S
C863        C864   1.374       .  A
C863        H875   1.081       .  S
C864        H876   1.082       .  S
C865        C866   1.370       .  A
C865        H877   1.083       .  S
C866        H878   1.079       .  S
C867        C962   1.493       .  S
C869        C957   1.492       .  S
N881        C886   1.355       .  A
N881        C885   1.355       .  A
N881        H913   1.037       .  S
N882        C889   1.351       .  A
N882        C890   1.353       .  A
N883        C888   1.355       .  A
N883        C887   1.355       .  A
N883        H914   1.035       .  S
N884        C891   1.352       .  A
N884        C892   1.351       .  A
C885        C893   1.386       .  A
C885        C901   1.416       .  A
C886       C1226   1.421   1_554  A
C886        C894   1.390       .  A
C887        C895   1.390       .  A
C887        C904   1.423       .  A
C888        C903   1.416       .  A
C888        C896   1.385       .  A
C889        C901   1.418       .  A
C889        C897   1.387       .  A
C890       C1228   1.411       .  A
C890        C898   1.384       .  A
C891        C899   1.385       .  A
C891        C902   1.411       .  A
C892        C900   1.387       .  A
C892        C903   1.415       .  A
C893        C894   1.376       .  A
C893        H905   1.082       .  S
C894        H906   1.082       .  S
C895        C896   1.375       .  A
C895        H907   1.082       .  S
C896        H908   1.081       .  S
C897        C898   1.376       .  A
C897        H909   1.081       .  S
C898        H910   1.082       .  S
C899        C900   1.373       .  A
C899        H911   1.082       .  S
C900        H912   1.082       .  S
C901        C953   1.492       .  S
C902       C1210   1.422       .  A
C903        C950   1.486       .  S
C904       C1214   1.409       .  A
C904       C1084   1.478       .  S
N915        C920   1.357       .  A
N915        C919   1.355       .  A
N915        H947   1.035       .  S
N916        C923   1.350       .  A
N916        C924   1.351       .  A
N917        C922   1.352       .  A
N917        C921   1.356       .  A
N917        H948   1.037       .  S
N918        C925   1.351       .  A
N918        C926   1.351       .  A
C919        C927   1.392       .  A
C919        C935   1.427       .  A
C920        C936   1.421       .  A
C920        C928   1.384       .  A
C921        C929   1.386       .  A
C921        C938   1.419       .  A
C922        C937   1.418       .  A
C922        C930   1.388       .  A
C923        C935   1.413       .  A
C923        C931   1.387       .  A
C924        C938   1.413       .  A
C924        C932   1.387       .  A
C925        C933   1.389       .  A
C925        C936   1.416       .  A
C926        C934   1.383       .  A
C926        C937   1.408       .  A
C927        C928   1.376       .  A
C927        H939   1.082       .  S
C928        H940   1.082       .  S
C929        C930   1.374       .  A
C929        H941   1.080       .  S
C930        H942   1.083       .  S
C931        C932   1.370       .  A
C931        H943   1.081       .  S
C932        H944   1.082       .  S
C933        C934   1.367       .  A
C933        H945   1.079       .  S
C934        H946   1.082       .  S
C936        C954   1.492       .  S
C938        C949   1.489       .  S
C949        C950   1.342       .  D
C949        H951   1.087       .  S
C950        H952   1.086       .  S
C953        C954   1.344       .  D
C953        H955   1.086       .  S
C954        H956   1.087       .  S
C957        C958   1.349       .  D
C958        H960   1.086       .  S
C961        C962   1.346       .  D
C962        H964   1.086       .  S
C965        C966   1.347   1_455  D
C965        H967   1.087       .  S
C966       H2264   1.086       .  S
H968       C2262   1.086       .  S
C969        C970   1.345   1_455  D
C969        H971   1.086       .  S
C970       H2268   1.086       .  S
H972       C2266   1.087       .  S
N973        C978   1.354       .  A
N973        C977   1.351       .  A
N973       H1005   1.040   1_655  S
N974        C981   1.353       .  A
N974        C982   1.351       .  A
N975        C980   1.359   1_655  A
N975        C979   1.356       .  A
N975       H1006   1.037       .  S
N976       C2279   1.352       .  A
N976       C2280   1.355       .  A
C977        C985   1.384       .  A
C977        C993   1.412       .  A
C978       C2290   1.413       .  A
C978        C986   1.388       .  A
C979        C987   1.386   1_655  A
C980        C995   1.427       .  A
C980        C988   1.390       .  A
C981        C993   1.409       .  A
C981        C989   1.384       .  A
C982        C996   1.417       .  A
C982        C990   1.389       .  A
C983       N2272   1.353       .  A
C983        C991   1.385       .  A
C984       N2272   1.355       .  A
C984        C992   1.387       .  A
C984       C2291   1.422       .  A
C985        C986   1.375       .  A
C985        H997   1.082       .  S
C986        H998   1.081       .  S
C987        C988   1.375       .  A
C987        H999   1.082       .  S
C988       H1000   1.081       .  S
C989        C990   1.372       .  A
C989       H1001   1.082       .  S
C990       H1002   1.083   1_655  S
C991        C992   1.371       .  A
C991       H1003   1.083       .  S
C992       H1004   1.077       .  S
C993       C1294   1.490       .  S
C994       C2274   1.411       .  A
C994       C2346   1.479       .  S
C995       C2280   1.420   1_455  A
C995       C1289   1.500       .  S
N1007      C1012   1.353   1_455  A
N1007      C1011   1.353   1_455  A
N1007      H1039   1.036       .  S
N1008      C1015   1.354   1_655  A
N1008      C1016   1.356       .  A
N1009      C1014   1.350   1_455  A
N1009      C1013   1.352   1_455  A
N1009      H1040   1.038       .  S
N1010      C1017   1.354       .  A
N1010      C1018   1.351       .  A
C1011      C1019   1.385       .  A
C1011      C1027   1.411   1_655  A
C1012      C1028   1.418   1_655  A
C1012      C1020   1.389       .  A
C1013      C1021   1.389       .  A
C1013      C1030   1.415       .  A
C1014      C1029   1.407   1_655  A
C1014      C1022   1.385       .  A
C1015      C1027   1.422       .  A
C1015      C1023   1.389       .  A
C1016      C1030   1.418       .  A
C1016      C1024   1.384   1_655  A
C1017      C1025   1.385       .  A
C1017      C1028   1.416       .  A
C1018      C1026   1.389       .  A
C1018      C1029   1.416       .  A
C1019      C1020   1.372       .  A
C1019      H1031   1.082       .  S
C1020      H1032   1.079       .  S
C1021      C1022   1.373       .  A
C1021      H1033   1.082       .  S
C1022      H1034   1.082       .  S
C1023      C1024   1.375       .  A
C1023      H1035   1.082       .  S
C1024      H1036   1.081       .  S
C1025      C1026   1.372       .  A
C1025      H1037   1.082       .  S
C1026      H1038   1.083       .  S
C1027      C1130   1.480       .  S
C1028      C1293   1.490       .  S
C1029      C1098   1.468       .  S
C1030      C1290   1.493       .  S
O1041      C1076   1.232       .  S
O1041     Mg2339   2.139   1_455  S
C1042      H1081   1.081       .  S
C1042      O1055   1.234       .  S
C1042      O1079   1.270       .  A
Mg1043     O2337   2.147       .  S
Mg1043     O1083   2.250       .  S
Mg1043     O1054   2.307       .  S
O1044      C1065   1.235       .  S
O1044     Mg1069   2.160       .  S
O1045     Mg1069   2.305       .  S
C1046      O1060   1.274       .  A
O1047      C2371   1.269       .  A
O1047     Mg1049   2.303   1_655  S
O1048     Mg1080   2.264       .  S
Mg1049     O1063   2.274       .  S
C1050      C2290   1.486       .  S
C1050      O2384   1.271       .  A
C1050      O1056   1.272   1_655  A
H1052      C1065   1.081       .  S
C1053      H1078   1.081       .  S
C1053      O1067   1.233       .  S
O1054      C1077   1.269       .  A
C1057      C1226   1.480       .  S
C1057      O1070   1.269       .  A
C1057      O1062   1.272       .  A
C1058      C1160   1.479       .  S
C1058      O1085   1.271       .  A
Mg1059     O1061   2.310       .  S
Mg1059     O1088   2.264       .  S
O1061      C2361   1.271       .  A
O1063      C1082   1.271   1_455  A
O1064      C1084   1.273       .  A
C1065      O2357   1.271   1_455  A
O1066      C1077   1.233       .  S
O1067     Mg2382   2.166       .  S
O1068     Mg1080   2.316       .  S
Mg1069     O1085   2.271       .  S
O1070     Mg1086   2.265       .  S
H1071      C1076   1.081       .  S
O1072      C1075   1.234       .  S
O1072     Mg1080   2.152       .  S
H1073      C1075   1.081       .  S
H1074      C1077   1.081       .  S
C1075      O2343   1.269       .  A
O1079     Mg1086   2.305       .  S
C1082      O2383   1.273       .  A
O1083      C1084   1.269       .  A
Mg1086     O2363   2.164   1_455  S
O1087      C2378   1.274       .  A
O1088      C2346   1.269       .  A
O1089      C1124   1.235       .  S
O1089     Mg2387   2.162       .  S
O1089     Mg1097   2.166       .  S
C1090      H1129   1.081       .  S
C1090      O1103   1.234       .  S
C1090      O1127   1.269       .  A
Mg1091     O2385   2.158   1_455  S
Mg1091     O1120   2.173       .  S
Mg1091     O1135   2.301       .  S
Mg1091     O1131   2.269       .  S
Mg1091     O1102   2.300       .  S
O1092      C1113   1.235       .  S
O1092     Mg1134   2.155       .  S
O1092     Mg1117   2.158       .  S
O1093     Mg1117   2.297       .  S
C1094      C1194   1.485       .  S
C1094      O1096   1.270       .  A
O1095      C2419   1.269       .  A
O1095     Mg1097   2.301       .  S
O1096     Mg1128   2.265       .  S
Mg1097     O1111   2.265       .  S
Mg1097     O1099   2.286       .  S
C1098      O1136   1.269       .  A
C1098      O2400   1.271   1_455  A
O1099      C1106   1.272       .  A
H1100      C1113   1.081       .  S
C1101      H1126   1.081       .  S
C1101      O1115   1.235       .  S
O1102      C1125   1.269       .  A
O1103     Mg1117   2.165       .  S
O1104      C2394   1.272       .  A
O1104     Mg1134   2.296       .  S
C1105      C1261   1.478       .  S
C1105      O1118   1.269       .  A
C1105      O1110   1.271       .  A
C1106      C1192   1.475       .  S
Mg1107     O1115   2.159       .  S
Mg1107     O1108   2.305       .  S
Mg1107     O1109   2.301       .  S
Mg1107     O1136   2.244       .  S
O1109      C2409   1.269   1_455  A
O1110     Mg1117   2.284       .  S
O1111      C2426   1.270       .  A
O1112      C1132   1.272       .  A
O1112     Mg1128   2.292       .  S
C1113      O2405   1.271       .  A
O1114      C1125   1.233       .  S
O1114     Mg1128   2.160       .  S
O1115     Mg2430   2.157   1_455  S
O1116     Mg1128   2.309       .  S
Mg1117     O1133   2.259       .  S
O1118     Mg1134   2.254       .  S
H1119      C1124   1.081       .  S
O1120      C1123   1.234       .  S
O1120     Mg1128   2.161       .  S
H1121      C1123   1.081       .  S
H1122      C1125   1.081       .  S
C1123      O2391   1.269       .  A
O1127     Mg1134   2.305       .  S
C1130      O2407   1.270   1_455  A
C1130      O1135   1.274       .  A
O1131      C1132   1.271       .  A
C1132      C1259   1.477       .  S
Mg1134     O2411   2.153       .  S
N1137      C1142   1.355       .  A
N1137      C1141   1.357       .  A
N1137      H1169   1.037       .  S
N1138      C1145   1.353       .  A
N1138      C1146   1.354       .  A
N1139      C1144   1.355       .  A
N1139      C1143   1.352       .  A
N1139      H1170   1.038       .  S
N1140      C1147   1.351       .  A
N1140      C1148   1.351       .  A
C1141      C1149   1.387       .  A
C1141      C1157   1.422       .  A
C1142      C1158   1.421       .  A
C1142      C1150   1.388       .  A
C1143      C1151   1.390       .  A
C1144      C1159   1.415       .  A
C1144      C1152   1.385       .  A
C1145      C1157   1.419       .  A
C1145      C1153   1.389       .  A
C1146      C1160   1.410       .  A
C1146      C1154   1.383       .  A
C1147      C1155   1.384       .  A
C1148      C1156   1.386       .  A
C1148      C1159   1.415       .  A
C1149      C1150   1.378       .  A
C1149      H1161   1.082       .  S
C1150      H1162   1.082       .  S
C1151      C1152   1.375       .  A
C1151      H1163   1.082       .  S
C1152      H1164   1.082       .  S
C1153      C1154   1.368       .  A
C1153      H1165   1.078       .  S
C1154      H1166   1.082       .  S
C1155      C1156   1.373       .  A
C1155      H1167   1.083       .  S
C1156      H1168   1.081       .  S
C1157      C1285   1.495       .  S
C1159      C1282   1.494       .  S
N1171      C1176   1.352       .  A
N1171      C1175   1.356       .  A
N1171      H1203   1.038       .  S
N1172      C1179   1.351       .  A
N1172      C1180   1.351       .  A
N1173      C1178   1.357       .  A
N1173      C1177   1.357       .  A
N1173      H1204   1.038       .  S
N1174      C1181   1.353       .  A
N1174      C1182   1.352       .  A
C1175      C1183   1.385       .  A
C1175      C1191   1.414       .  A
C1176      C1192   1.417       .  A
C1176      C1184   1.389       .  A
C1177      C1185   1.391       .  A
C1177      C1194   1.426       .  A
C1178      C1193   1.422       .  A
C1178      C1186   1.385       .  A
C1179      C1191   1.414       .  A
C1179      C1187   1.383       .  A
C1180      C1194   1.411       .  A
C1180      C1188   1.387       .  A
C1181      C1189   1.383       .  A
C1181      C1192   1.408       .  A
C1182      C1190   1.389       .  A
C1182      C1193   1.417       .  A
C1183      C1184   1.376       .  A
C1183      H1195   1.082       .  S
C1184      H1196   1.083       .  S
C1185      C1186   1.376       .  A
C1185      H1197   1.081       .  S
C1186      H1198   1.081       .  S
C1187      C1188   1.372       .  A
C1187      H1199   1.081       .  S
C1188      H1200   1.081       .  S
C1189      C1190   1.369       .  A
C1189      H1201   1.083       .  S
C1190      H1202   1.079       .  S
C1191      C1286   1.495       .  S
C1193      C1281   1.495       .  S
N1205      C1210   1.355       .  A
N1205      C1209   1.356       .  A
N1205      H1237   1.036       .  S
N1206      C1213   1.350       .  A
N1206      C1214   1.351       .  A
N1207      C1212   1.357       .  A
N1207      C1211   1.355       .  A
N1207      H1238   1.038       .  S
N1208      C1215   1.351       .  A
N1208      C1216   1.350       .  A
C1209      C1217   1.386       .  A
C1209      C1225   1.418       .  A
C1210      C1218   1.389       .  A
C1211      C1219   1.389       .  A
C1211      C1228   1.421   1_556  A
C1212      C1227   1.419       .  A
C1212      C1220   1.386       .  A
C1213      C1225   1.417       .  A
C1213      C1221   1.387       .  A
C1214      C1222   1.384       .  A
C1215      C1223   1.383       .  A
C1215      C1226   1.409       .  A
C1216      C1224   1.387       .  A
C1216      C1227   1.415       .  A
C1217      C1218   1.376       .  A
C1217      H1229   1.082       .  S
C1218      H1230   1.082       .  S
C1219      C1220   1.377       .  A
C1219      H1231   1.082       .  S
C1220      H1232   1.082       .  S
C1221      C1222   1.370       .  A
C1221      H1233   1.079       .  S
C1222      H1234   1.082       .  S
C1223      C1224   1.374       .  A
C1223      H1235   1.082       .  S
C1224      H1236   1.079       .  S
C1225      C1277   1.491       .  S
C1227      C1274   1.492       .  S
N1239      C1244   1.357       .  A
N1239      C1243   1.353       .  A
N1239      H1271   1.037       .  S
N1240      C1247   1.350       .  A
N1240      C1248   1.351       .  A
N1241      C1246   1.354       .  A
N1241      C1245   1.357       .  A
N1241      H1272   1.037       .  S
N1242      C1249   1.351       .  A
N1242      C1250   1.350       .  A
C1243      C1251   1.388       .  A
C1243      C1259   1.419       .  A
C1244      C1260   1.419       .  A
C1244      C1252   1.387       .  A
C1245      C1253   1.385       .  A
C1245      C1262   1.417       .  A
C1246      C1261   1.423       .  A
C1246      C1254   1.391       .  A
C1247      C1259   1.408       .  A
C1247      C1255   1.384       .  A
C1248      C1262   1.413       .  A
C1248      C1256   1.386       .  A
C1249      C1257   1.387       .  A
C1249      C1260   1.413       .  A
C1250      C1258   1.387       .  A
C1250      C1261   1.411       .  A
C1251      C1252   1.377       .  A
C1251      H1263   1.082       .  S
C1252      H1264   1.081       .  S
C1253      C1254   1.377       .  A
C1253      H1265   1.083       .  S
C1254      H1266   1.081       .  S
C1255      C1256   1.374       .  A
C1255      H1267   1.082       .  S
C1256      H1268   1.079       .  S
C1257      C1258   1.372       .  A
C1257      H1269   1.081       .  S
C1258      H1270   1.082       .  S
C1260      C1278   1.491       .  S
C1262      C1273   1.491       .  S
C1273      C1274   1.342       .  D
C1273      H1275   1.086       .  S
C1274      H1276   1.086       .  S
C1277      C1278   1.346       .  D
C1277      H1279   1.086       .  S
C1278      H1280   1.087       .  S
C1281      C1282   1.346       .  D
C1282      H1284   1.086       .  S
C1285      C1286   1.346       .  D
C1286      H1288   1.086       .  S
C1289      C1290   1.349   1_455  D
C1289      H1291   1.086       .  S
C1290      H2588   1.085       .  S
H1292      C2586   1.086       .  S
C1293      C1294   1.346   1_455  D
C1293      H1295   1.087       .  S
C1294      H2592   1.086       .  S
H1296      C2590   1.086       .  S
N1297      C1302   1.355       .  A
N1297      C1301   1.353       .  A
N1297      H1329   1.039       .  S
N1298      C1305   1.352       .  A
N1298      C1306   1.351       .  A
N1299      C1304   1.354       .  A
N1299      C1303   1.353       .  A
N1299      H1330   1.034       .  S
C1301      C1309   1.384       .  A
C1301      C1317   1.415       .  A
C1302      C1310   1.388       .  A
C1303      C1311   1.384       .  A
C1303      C1644   1.412       .  A
C1304      C1319   1.420       .  A
C1304      C1312   1.389       .  A
C1305      C1317   1.409       .  A
C1305      C1313   1.385       .  A
C1306      C1320   1.417   1_554  A
C1306      C1314   1.389       .  A
C1307      C1315   1.388       .  A
C1307      C1642   1.420   1_455  A
C1308      C1316   1.385       .  A
C1309      C1310   1.375       .  A
C1309      H1321   1.081       .  S
C1310      H1322   1.081       .  S
C1311      C1312   1.371       .  A
C1311      H1323   1.083       .  S
C1312      H1324   1.078       .  S
C1313      C1314   1.370       .  A
C1313      H1325   1.082       .  S
C1314      H1326   1.083       .  S
C1315      C1316   1.374       .  A
C1315      H1327   1.082       .  S
C1316      H1328   1.081       .  S
C1317      C1618   1.489       .  S
C1318      C1631   1.425   1_654  A
C1319      C1613   1.498       .  S
C1320      C1627   1.410       .  A
C1320      C1730   1.476       .  S
N1331      C1336   1.352       .  A
N1331      C1335   1.352       .  A
N1331      H1363   1.036       .  S
N1332      C1339   1.352       .  A
N1332      C1340   1.354       .  A
N1333      C1338   1.353       .  A
N1333      C1337   1.354       .  A
N1333      H1364   1.041       .  S
N1334      C1341   1.355       .  A
N1334      C1342   1.353       .  A
C1335      C1343   1.385       .  A
C1335      C1351   1.409       .  A
C1336      C1352   1.415       .  A
C1336      C1344   1.389       .  A
C1337      C1345   1.386       .  A
C1337      C1354   1.418       .  A
C1338      C1353   1.410       .  A
C1338      C1346   1.385       .  A
C1339      C1351   1.418       .  A
C1339      C1347   1.389       .  A
C1340      C1354   1.413       .  A
C1340      C1348   1.384       .  A
C1341      C1349   1.385       .  A
C1341      C1352   1.418       .  A
C1342      C1350   1.388       .  A
C1342      C1353   1.417       .  A
C1343      C1344   1.371       .  A
C1343      H1355   1.082       .  S
C1344      H1356   1.079       .  S
C1345      C1346   1.376       .  A
C1345      H1357   1.080       .  S
C1346      H1358   1.082       .  S
C1347      C1348   1.371       .  A
C1347      H1359   1.082       .  S
C1348      H1360   1.081       .  S
C1349      C1350   1.375       .  A
C1349      H1361   1.082       .  S
C1350      H1362   1.083       .  S
C1351      C1454   1.474       .  S
C1352      C1617   1.488       .  S
C1353      C1422   1.480       .  S
C1354      C1614   1.497       .  S
O1365      C1400   1.234       .  S
O1365     Mg1697   2.163   1_554  S
C1366      H1405   1.081       .  S
C1366      O1379   1.234       .  S
C1366      O1403   1.270       .  A
Mg1367     O1720   2.159   1_554  S
Mg1367     O1735   2.288   1_554  S
Mg1367     O1407   2.252       .  S
Mg1367     O1378   2.301       .  S
O1368      C1389   1.234       .  S
O1368     Mg1734   2.151   1_554  S
O1368     Mg1393   2.155       .  S
O1369      C2048   1.270   1_545  A
O1369     Mg1393   2.302       .  S
C1370      C1806   1.478       .  S
C1370      O2020   1.270   1_545  A
C1370      O1384   1.272       .  A
O1371     Mg1373   2.299       .  S
O1372      C2018   1.271       .  A
O1372     Mg1404   2.266       .  S
Mg1373     O1689   2.167       .  S
Mg1373     O2027   2.154       .  S
Mg1373     O1387   2.255       .  S
Mg1373     O1699   2.281       .  S
C1374      O1380   1.274       .  A
O1375      C2030   1.270   1_556  A
O1375     Mg1697   2.274       .  S
H1376      C1389   1.081       .  S
C1377      H1402   1.081       .  S
C1377      O1391   1.235       .  S
C1377      O2040   1.271       .  A
O1378      C1401   1.269       .  A
O1379     Mg2021   2.151   1_545  S
O1379     Mg1717   2.156       .  S
O1380     Mg1734   2.305   1_554  S
C1381      C1550   1.484       .  S
C1381      O1394   1.271       .  A
C1381      O1386   1.273       .  A
C1382      C1484   1.476       .  S
C1382      O2023   1.271   1_545  A
C1382      O1409   1.270       .  A
Mg1383     O2038   2.173   1_545  S
Mg1383     O1715   2.158   1_554  S
Mg1383     O1708   2.293   1_554  S
Mg1383     O1385   2.307       .  S
Mg1383     O1412   2.285       .  S
O1384     Mg1707   2.299       .  S
O1386     Mg1717   2.300       .  S
O1387      C1406   1.269       .  A
O1388      C1408   1.274       .  A
O1388     Mg1728   2.308   1_554  S
O1390      C1401   1.234       .  S
O1390     Mg2031   2.152       .  S
O1390     Mg1728   2.163   1_554  S
O1391     Mg1707   2.155       .  S
O1392      C2025   1.271       .  A
O1392     Mg1404   2.309       .  S
Mg1393     O1703   2.163   1_554  S
Mg1393     O1710   2.306   1_554  S
Mg1393     O1409   2.259       .  S
O1394     Mg1410   2.278       .  S
H1395      C1400   1.081       .  S
O1396      C1399   1.234       .  S
O1396     Mg1691   2.168       .  S
O1396     Mg1404   2.155       .  S
H1397      C1399   1.081       .  S
H1398      C1401   1.081       .  S
C1400      O2017   1.268       .  A
O1403     Mg1410   2.305       .  S
Mg1404     O1714   2.163       .  S
Mg1404     O1712   2.309       .  S
C1406      C1644   1.477       .  S
O1407      C1408   1.269       .  A
C1408      C1876   1.478       .  S
Mg1410     O1692   2.155       .  S
Mg1410     O1704   2.301       .  S
O1411     Mg1691   2.292       .  S
O1413      C1448   1.234       .  S
O1413     Mg1421   2.165       .  S
C1414      H1453   1.081       .  S
C1414      O1427   1.235       .  S
C1414      O1451   1.270       .  A
Mg1415     O1444   2.159       .  S
Mg1415     O1459   2.285       .  S
Mg1415     O1455   2.284       .  S
Mg1415     O1426   2.301       .  S
O1416      C1437   1.234       .  S
O1416     Mg1458   2.150       .  S
O1416     Mg1441   2.157       .  S
O1417      C2096   1.269       .  A
O1417     Mg1441   2.299       .  S
C1418      C1518   1.482   1_545  S
C1418      O1420   1.268       .  A
C1418      O2080   1.273   1_545  A
O1419     Mg1421   2.299   1_455  S
O1420     Mg1452   2.252       .  S
Mg1421     O2075   2.149   1_545  S
Mg1421     O1435   2.259       .  S
Mg1421     O1423   2.284       .  S
C1422      O1460   1.272       .  A
O1423      C1430   1.271   1_545  A
H1424      C1437   1.081       .  S
C1425      H1450   1.081       .  S
C1425      O1439   1.235       .  S
C1425      O2088   1.271       .  A
O1426      C1449   1.269       .  A
O1427     Mg2069   2.140       .  S
O1427     Mg1441   2.160       .  S
O1428     Mg1458   2.293       .  S
C1429      C1585   1.481       .  S
C1429      O1442   1.270       .  A
C1429      O1434   1.269       .  A
C1430      C1516   1.475       .  S
C1430      O2105   1.269       .  A
Mg1431     O2086   2.168       .  S
Mg1431     O1439   2.167       .  S
Mg1431     O1432   2.301       .  S
Mg1431     O1433   2.300       .  S
Mg1431     O1460   2.274       .  S
O1432      C2066   1.274       .  A
O1434     Mg1441   2.280       .  S
O1436      C1456   1.272       .  A
O1436     Mg1452   2.295       .  S
O1438      C1449   1.234       .  S
O1438     Mg2079   2.159   1_545  S
O1438     Mg1452   2.161       .  S
O1440      C2073   1.270       .  A
O1440     Mg1452   2.308   1_565  S
Mg1441     O1457   2.256       .  S
O1442     Mg1458   2.269       .  S
H1443      C1448   1.081       .  S
O1444      C1447   1.234       .  S
O1444     Mg1452   2.144       .  S
H1445      C1447   1.081       .  S
H1446      C1449   1.081       .  S
C1448      O2065   1.270       .  A
O1451     Mg1458   2.305       .  S
C1454      O1459   1.272       .  A
O1455      C1456   1.272       .  A
C1456      C1583   1.484       .  S
O1457      C2078   1.268       .  A
N1461      C1466   1.355       .  A
N1461      C1465   1.357       .  A
N1461      H1493   1.038   1_565  S
N1462      C1469   1.352       .  A
N1462      C1470   1.352   1_565  A
N1463      C1468   1.357       .  A
N1463      C1467   1.352       .  A
N1463      H1494   1.038       .  S
N1464      C1471   1.349       .  A
N1464      C1472   1.349       .  A
C1465      C1473   1.386       .  A
C1465      C1481   1.422       .  A
C1466      C1482   1.421   1_554  A
C1466      C1474   1.388       .  A
C1467      C1475   1.390   1_545  A
C1467      C1808   1.419       .  A
C1468      C1483   1.416       .  A
C1468      C1476   1.385   1_545  A
C1469      C1481   1.416       .  A
C1469      C1477   1.388   1_565  A
C1470      C1484   1.409       .  A
C1470      C1478   1.384       .  A
C1471      C1479   1.385       .  A
C1471      C1806   1.406       .  A
C1472      C1480   1.386       .  A
C1472      C1483   1.413       .  A
C1473      C1474   1.378       .  A
C1473      H1485   1.081       .  S
C1474      H1486   1.083       .  S
C1475      C1476   1.376       .  A
C1475      H1487   1.082       .  S
C1476      H1488   1.082       .  S
C1477      C1478   1.367       .  A
C1477      H1489   1.078       .  S
C1478      H1490   1.082       .  S
C1479      C1480   1.373       .  A
C1479      H1491   1.082       .  S
C1480      H1492   1.081       .  S
C1481      C1609   1.494       .  S
C1482      C1795   1.407   1_565  A
C1482      C1694   1.477       .  S
C1483      C1606   1.496       .  S
C1484      C1791   1.420   1_544  A
N1495      C1500   1.352   1_545  A
N1495      C1499   1.356       .  A
N1495      H1527   1.039       .  S
N1496      C1503   1.352       .  A
N1496      C1504   1.352       .  A
N1497      C1502   1.356       .  A
N1497      C1501   1.355       .  A
N1497      H1528   1.039   1_565  S
N1498      C1505   1.352   1_565  A
N1498      C1506   1.352       .  A
C1499      C1507   1.385   1_545  A
C1499      C1515   1.413       .  A
C1500      C1516   1.418       .  A
C1500      C1508   1.389       .  A
C1501      C1509   1.391       .  A
C1501      C1518   1.423       .  A
C1502      C1517   1.419       .  A
C1502      C1510   1.384       .  A
C1503      C1515   1.414       .  A
C1503      C1511   1.383       .  A
C1504      C1518   1.412   1_545  A
C1504      C1512   1.387       .  A
C1505      C1513   1.383       .  A
C1505      C1516   1.408   1_545  A
C1506      C1514   1.389   1_565  A
C1506      C1517   1.417       .  A
C1507      C1508   1.375       .  A
C1507      H1519   1.081       .  S
C1508      H1520   1.083       .  S
C1509      C1510   1.376       .  A
C1509      H1521   1.081       .  S
C1510      H1522   1.082       .  S
C1511      C1512   1.373       .  A
C1511      H1523   1.081       .  S
C1512      H1524   1.081       .  S
C1513      C1514   1.369       .  A
C1513      H1525   1.083       .  S
C1514      H1526   1.079       .  S
C1515      C1610   1.495       .  S
C1517      C1605   1.494       .  S
N1529      C1534   1.356       .  A
N1529      C1533   1.357       .  A
N1529      H1561   1.037       .  S
N1530      C1537   1.350       .  A
N1530      C1538   1.352       .  A
N1531      C1536   1.357       .  A
N1531      C1535   1.355       .  A
N1531      H1562   1.039       .  S
N1532      C1539   1.352       .  A
N1532      C1540   1.351       .  A
C1533      C1541   1.385       .  A
C1533      C1549   1.419       .  A
C1534      C1874   1.423   1_554  A
C1534      C1542   1.389       .  A
C1535      C1543   1.389       .  A
C1535      C1552   1.421       .  A
C1536      C1551   1.418       .  A
C1536      C1544   1.386       .  A
C1537      C1549   1.415       .  A
C1537      C1545   1.388       .  A
C1538      C1876   1.410       .  A
C1538      C1546   1.385       .  A
C1539      C1547   1.384       .  A
C1539      C1550   1.411       .  A
C1540      C1548   1.386       .  A
C1540      C1551   1.414       .  A
C1541      C1542   1.376       .  A
C1541      H1553   1.081       .  S
C1542      H1554   1.082       .  S
C1543      C1544   1.377       .  A
C1543      H1555   1.082       .  S
C1544      H1556   1.082       .  S
C1545      C1546   1.375       .  A
C1545      H1557   1.082       .  S
C1546      H1558   1.082       .  S
C1547      C1548   1.375       .  A
C1547      H1559   1.082       .  S
C1548      H1560   1.080       .  S
C1549      C1601   1.490       .  S
C1550      C1858   1.423       .  A
C1551      C1598   1.491       .  S
C1552      C1862   1.411       .  A
C1552      C1732   1.483       .  S
N1563      C1568   1.358       .  A
N1563      C1567   1.356       .  A
N1563      H1595   1.036       .  S
N1564      C1571   1.352       .  A
N1564      C1572   1.352       .  A
N1565      C1570   1.355       .  A
N1565      C1569   1.358       .  A
N1565      H1596   1.038       .  S
N1566      C1573   1.352       .  A
N1566      C1574   1.351       .  A
C1567      C1575   1.387       .  A
C1567      C1583   1.422       .  A
C1568      C1584   1.424       .  A
C1568      C1576   1.387       .  A
C1569      C1577   1.385       .  A
C1569      C1586   1.420       .  A
C1570      C1585   1.425       .  A
C1570      C1578   1.391       .  A
C1571      C1583   1.408       .  A
C1571      C1579   1.382       .  A
C1572      C1586   1.417       .  A
C1572      C1580   1.388       .  A
C1573      C1581   1.389       .  A
C1573      C1584   1.417       .  A
C1574      C1582   1.386       .  A
C1574      C1585   1.411       .  A
C1575      C1576   1.376       .  A
C1575      H1587   1.083       .  S
C1576      H1588   1.079       .  S
C1577      C1578   1.377       .  A
C1577      H1589   1.082       .  S
C1578      H1590   1.081       .  S
C1579      C1580   1.372       .  A
C1579      H1591   1.082       .  S
C1580      H1592   1.077       .  S
C1581      C1582   1.372       .  A
C1581      H1593   1.082       .  S
C1582      H1594   1.082       .  S
C1584      C1602   1.494       .  S
C1586      C1597   1.497       .  S
C1597      C1598   1.343       .  D
C1597      H1599   1.086       .  S
C1598      H1600   1.086       .  S
C1601      C1602   1.345       .  D
C1601      H1603   1.086       .  S
C1602      H1604   1.087       .  S
C1605      C1606   1.348   1_565  D
C1605      H2255   1.087       .  S
C1606      H1608   1.086       .  S
H1607      C2253   1.087       .  S
C1609      C1610   1.346   1_565  D
C1609      H2259   1.087       .  S
C1610      H1612   1.086       .  S
H1611      C2257   1.087       .  S
C1613      C1614   1.347       .  D
C1613      H1615   1.087       .  S
C1617      C1618   1.343       .  D
C1617      H1619   1.087       .  S
N1621      C1626   1.353       .  A
N1621      C1625   1.353       .  A
N1621      H1653   1.040       .  S
N1622      C1629   1.355       .  A
N1622      C1630   1.352       .  A
N1623      C1628   1.352       .  A
N1623      C1627   1.354       .  A
N1623      H1654   1.032       .  S
C1625      C1633   1.384       .  A
C1625      C1641   1.414       .  A
C1626      C1634   1.388       .  A
C1627      C1635   1.383       .  A
C1628      C1643   1.420       .  A
C1628      C1636   1.390       .  A
C1629      C1641   1.414       .  A
C1629      C1637   1.384       .  A
C1630      C1644   1.420       .  A
C1630      C1638   1.389       .  A
C1631      C1639   1.389       .  A
C1632      C1640   1.385       .  A
C1633      C1634   1.374       .  A
C1633      H1645   1.081       .  S
C1634      H1646   1.081       .  S
C1635      C1636   1.370       .  A
C1635      H1647   1.083       .  S
C1636      H1648   1.077       .  S
C1637      C1638   1.374       .  A
C1637      H1649   1.082       .  S
C1638      H1650   1.083       .  S
C1639      C1640   1.374       .  A
C1639      H1651   1.082       .  S
C1640      H1652   1.081       .  S
C1641      C1942   1.499       .  S
C1643      C1937   1.491       .  S
N1655      C1660   1.355       .  A
N1655      C1659   1.355       .  A
N1655      H1687   1.037       .  S
N1656      C1663   1.351       .  A
N1656      C1664   1.352       .  A
N1657      C1662   1.353       .  A
N1657      C1661   1.352       .  A
N1657      H1688   1.041       .  S
N1658      C1665   1.355       .  A
N1658      C1666   1.354       .  A
C1659      C1667   1.384       .  A
C1659      C1675   1.413       .  A
C1660      C1676   1.423       .  A
C1660      C1668   1.390       .  A
C1661      C1669   1.386       .  A
C1661      C1678   1.414       .  A
C1662      C1677   1.408       .  A
C1662      C1670   1.385       .  A
C1663      C1675   1.417       .  A
C1663      C1671   1.390       .  A
C1664      C1678   1.409       .  A
C1664      C1672   1.384       .  A
C1665      C1673   1.386       .  A
C1665      C1676   1.421       .  A
C1666      C1674   1.387       .  A
C1666      C1677   1.418       .  A
C1667      C1668   1.374       .  A
C1667      H1679   1.082       .  S
C1668      H1680   1.079       .  S
C1669      C1670   1.375       .  A
C1669      H1681   1.081       .  S
C1670      H1682   1.082       .  S
C1671      C1672   1.371       .  A
C1671      H1683   1.082       .  S
C1672      H1684   1.081       .  S
C1673      C1674   1.375       .  A
C1673      H1685   1.081       .  S
C1674      H1686   1.082       .  S
C1675      C1778   1.478       .  S
C1676      C1941   1.499       .  S
C1677      C1746   1.480       .  S
C1678      C1938   1.490       .  S
O1689      C1724   1.233       .  S
C1690      H1729   1.081       .  S
C1690      O1703   1.234       .  S
C1690      O1727   1.270       .  A
Mg1691     O1731   2.276       .  S
Mg1691     O1702   2.302       .  S
O1692      C1713   1.234       .  S
O1692     Mg1717   2.161       .  S
O1693      C2372   1.269   1_545  A
O1693     Mg1717   2.302       .  S
C1694      O2344   1.271       .  A
C1694      O1708   1.272   1_565  A
O1695     Mg1697   2.297       .  S
O1696      C2342   1.270       .  A
O1696     Mg1728   2.260       .  S
Mg1697     O2351   2.147       .  S
Mg1697     O1711   2.251       .  S
C1698      O1704   1.274       .  A
O1699      C2354   1.271       .  A
H1700      C1713   1.081       .  S
C1701      H1726   1.081       .  S
C1701      O1715   1.234       .  S
C1701      O2364   1.269       .  A
O1702      C1725   1.268       .  A
O1703     Mg2345   2.166   1_545  S
C1705      C1874   1.486       .  S
C1705      O1718   1.272       .  A
C1705      O1710   1.274       .  A
C1706      C1808   1.478       .  S
C1706      O2347   1.271   1_545  A
C1706      O1733   1.271       .  A
Mg1707     O2362   2.156   1_545  S
Mg1707     O1709   2.309       .  S
Mg1707     O1736   2.258       .  S
O1711      C1730   1.268       .  A
O1712      C1732   1.274       .  A
O1714      C1725   1.233       .  S
O1714     Mg2355   2.160       .  S
O1716      C2349   1.270       .  A
O1716     Mg1728   2.306       .  S
Mg1717     O1733   2.269       .  S
O1718     Mg1734   2.285       .  S
H1719      C1724   1.081       .  S
O1720      C1723   1.233       .  S
O1720     Mg1728   2.147       .  S
H1721      C1723   1.081       .  S
H1722      C1725   1.081       .  S
C1724      O2341   1.269       .  A
O1727     Mg1734   2.308       .  S
O1731      C1732   1.272       .  A
O1737      C1772   1.233       .  S
O1737     Mg1745   2.165       .  S
C1738      H1777   1.081       .  S
C1738      O1751   1.234       .  S
C1738      O1775   1.270       .  A
Mg1739     O1768   2.158       .  S
Mg1739     O1783   2.298       .  S
Mg1739     O1779   2.258       .  S
Mg1739     O1750   2.306       .  S
O1740      C1761   1.235       .  S
O1740     Mg1782   2.154       .  S
O1740     Mg1765   2.159       .  S
O1741      C2420   1.269       .  A
O1741     Mg1765   2.301       .  S
C1742      C1842   1.483       .  S
C1742      O1744   1.268   1_565  A
C1742      O2404   1.274       .  A
O1743     Mg1745   2.303   1_455  S
O1744     Mg1776   2.250       .  S
Mg1745     O2399   2.152   1_545  S
Mg1745     O1759   2.265       .  S
Mg1745     O1747   2.282       .  S
C1746      O1784   1.271       .  A
O1747      C1754   1.272   1_545  A
H1748      C1761   1.081       .  S
C1749      H1774   1.081       .  S
C1749      O1763   1.235       .  S
C1749      O2412   1.272       .  A
O1750      C1773   1.271       .  A
O1751     Mg2393   2.152       .  S
O1751     Mg1765   2.163       .  S
O1752     Mg1782   2.306       .  S
C1753      C1909   1.477       .  S
C1753      O1766   1.269       .  A
C1753      O1758   1.271       .  A
C1754      C1840   1.475       .  S
C1754      O2429   1.269       .  A
Mg1755     O2410   2.169       .  S
Mg1755     O1763   2.165       .  S
Mg1755     O1756   2.301       .  S
Mg1755     O1757   2.305       .  S
Mg1755     O1784   2.275       .  S
O1756      C2390   1.273       .  A
O1758     Mg1765   2.287       .  S
O1760      C1780   1.270       .  A
O1760     Mg1776   2.283       .  S
O1762      C1773   1.235       .  S
O1762     Mg2403   2.160   1_545  S
O1762     Mg1776   2.158       .  S
O1764      C2397   1.269       .  A
O1764     Mg1776   2.307   1_565  S
Mg1765     O1781   2.265       .  S
O1766     Mg1782   2.257       .  S
H1767      C1772   1.081       .  S
O1768      C1771   1.233       .  S
O1768     Mg1776   2.149       .  S
H1769      C1771   1.081       .  S
H1770      C1773   1.081       .  S
C1772      O2389   1.268   1_545  A
O1775     Mg1782   2.308       .  S
C1778      O1783   1.273       .  A
O1779      C1780   1.269       .  A
C1780      C1907   1.473       .  S
O1781      C2402   1.270       .  A
N1785      C1790   1.356       .  A
N1785      C1789   1.357   1_545  A
N1785      H1817   1.039       .  S
N1786      C1793   1.353       .  A
N1786      C1794   1.354       .  A
N1787      C1792   1.356   1_545  A
N1787      C1791   1.353   1_545  A
N1787      H1818   1.038       .  S
N1788      C1795   1.350       .  A
N1788      C1796   1.350       .  A
C1789      C1797   1.386       .  A
C1789      C1805   1.422   1_565  A
C1790      C1806   1.421       .  A
C1790      C1798   1.388   1_545  A
C1791      C1799   1.390       .  A
C1792      C1807   1.416   1_565  A
C1792      C1800   1.385       .  A
C1793      C1805   1.419       .  A
C1793      C1801   1.389       .  A
C1794      C1808   1.410       .  A
C1794      C1802   1.383       .  A
C1795      C1803   1.385       .  A
C1796      C1804   1.386       .  A
C1796      C1807   1.414       .  A
C1797      C1798   1.377       .  A
C1797      H1809   1.081       .  S
C1798      H1810   1.082       .  S
C1799      C1800   1.376       .  A
C1799      H1811   1.082       .  S
C1800      H1812   1.082       .  S
C1801      C1802   1.369       .  A
C1801      H1813   1.078       .  S
C1802      H1814   1.083       .  S
C1803      C1804   1.372       .  A
C1803      H1815   1.083       .  S
C1804      H1816   1.081       .  S
C1805      C1933   1.496   1_545  S
C1807      C1930   1.494       .  S
N1819      C1824   1.352   1_545  A
N1819      C1823   1.356       .  A
N1819      H1851   1.040       .  S
N1820      C1827   1.351       .  A
N1820      C1828   1.351       .  A
N1821      C1826   1.355       .  A
N1821      C1825   1.356       .  A
N1821      H1852   1.038   1_565  S
N1822      C1829   1.352       .  A
N1822      C1830   1.352       .  A
C1823      C1831   1.385   1_545  A
C1823      C1839   1.413       .  A
C1824      C1840   1.418       .  A
C1824      C1832   1.390       .  A
C1825      C1833   1.391       .  A
C1825      C1842   1.425       .  A
C1826      C1841   1.419       .  A
C1826      C1834   1.385       .  A
C1827      C1839   1.413       .  A
C1827      C1835   1.383       .  A
C1828      C1842   1.412   1_545  A
C1828      C1836   1.387       .  A
C1829      C1837   1.383       .  A
C1829      C1840   1.408       .  A
C1830      C1838   1.389       .  A
C1830      C1841   1.418       .  A
C1831      C1832   1.376       .  A
C1831      H1843   1.082       .  S
C1832      H1844   1.083       .  S
C1833      C1834   1.376       .  A
C1833      H1845   1.081       .  S
C1834      H1846   1.082       .  S
C1835      C1836   1.372       .  A
C1835      H1847   1.081       .  S
C1836      H1848   1.081       .  S
C1837      C1838   1.370       .  A
C1837      H1849   1.083       .  S
C1838      H1850   1.079       .  S
C1839      C1934   1.497       .  S
C1841      C1929   1.493       .  S
N1853      C1858   1.356       .  A
N1853      C1857   1.356       .  A
N1853      H1885   1.037       .  S
N1854      C1861   1.351       .  A
N1854      C1862   1.353       .  A
N1855      C1860   1.356       .  A
N1855      C1859   1.353       .  A
N1855      H1886   1.037       .  S
N1856      C1863   1.352       .  A
N1856      C1864   1.351       .  A
C1857      C1865   1.386       .  A
C1857      C1873   1.420       .  A
C1858      C1866   1.389       .  A
C1859      C1867   1.390       .  A
C1859      C1876   1.420   1_556  A
C1860      C1875   1.417       .  A
C1860      C1868   1.386       .  A
C1861      C1873   1.416       .  A
C1861      C1869   1.388       .  A
C1862      C1870   1.384       .  A
C1863      C1871   1.384       .  A
C1863      C1874   1.411       .  A
C1864      C1872   1.386       .  A
C1864      C1875   1.415       .  A
C1865      C1866   1.376       .  A
C1865      H1877   1.081       .  S
C1866      H1878   1.082       .  S
C1867      C1868   1.377       .  A
C1867      H1879   1.082       .  S
C1868      H1880   1.083       .  S
C1869      C1870   1.375       .  A
C1869      H1881   1.082       .  S
C1870      H1882   1.082       .  S
C1871      C1872   1.375       .  A
C1871      H1883   1.082       .  S
C1872      H1884   1.079       .  S
C1873      C1925   1.488       .  S
C1875      C1922   1.489       .  S
N1887      C1892   1.356       .  A
N1887      C1891   1.353       .  A
N1887      H1919   1.039       .  S
N1888      C1895   1.349       .  A
N1888      C1896   1.350       .  A
N1889      C1894   1.354       .  A
N1889      C1893   1.358       .  A
N1889      H1920   1.038       .  S
N1890      C1897   1.351       .  A
N1890      C1898   1.350       .  A
C1891      C1899   1.388       .  A
C1891      C1907   1.417       .  A
C1892      C1908   1.416       .  A
C1892      C1900   1.386       .  A
C1893      C1901   1.385       .  A
C1893      C1910   1.419       .  A
C1894      C1909   1.423       .  A
C1894      C1902   1.391       .  A
C1895      C1907   1.404       .  A
C1895      C1903   1.382       .  A
C1896      C1910   1.414       .  A
C1896      C1904   1.388       .  A
C1897      C1905   1.386       .  A
C1897      C1908   1.411       .  A
C1898      C1906   1.387       .  A
C1898      C1909   1.410       .  A
C1899      C1900   1.376       .  A
C1899      H1911   1.083       .  S
C1900      H1912   1.081       .  S
C1901      C1902   1.377       .  A
C1901      H1913   1.082       .  S
C1902      H1914   1.081       .  S
C1903      C1904   1.372       .  A
C1903      H1915   1.082       .  S
C1904      H1916   1.078       .  S
C1905      C1906   1.374       .  A
C1905      H1917   1.082       .  S
C1906      H1918   1.082       .  S
C1908      C1926   1.487       .  S
C1910      C1921   1.493       .  S
C1921      C1922   1.342       .  D
C1921      H1923   1.086       .  S
C1922      H1924   1.086       .  S
C1925      C1926   1.343       .  D
C1925      H1927   1.087       .  S
C1926      H1928   1.086       .  S
C1929      C1930   1.348   1_565  D
C1929      H2579   1.087       .  S
C1930      H1932   1.086       .  S
H1931      C2577   1.087       .  S
C1933      C1934   1.348   1_565  D
C1933      H2583   1.087       .  S
C1934      H1936   1.086       .  S
H1935      C2581   1.087       .  S
C1937      C1938   1.344       .  D
C1937      H1939   1.087       .  S
C1941      C1942   1.351       .  D
C1941      H1943   1.087       .  S
N1945      C1950   1.350       .  A
N1945      C1949   1.353       .  A
N1945      H1977   1.039       .  S
N1946      C1953   1.356       .  A
N1946      C1954   1.354       .  A
N1947      C1952   1.353       .  A
N1947      C1951   1.353       .  A
N1947      H1978   1.035       .  S
C1949      C1957   1.390       .  A
C1949      C1965   1.417       .  A
C1950      C1958   1.382       .  A
C1951      C1959   1.384       .  A
C1951      C2292   1.411       .  A
C1952      C1967   1.419       .  A
C1952      C1960   1.390       .  A
C1953      C1965   1.416       .  A
C1953      C1961   1.384       .  A
C1954      C1968   1.424   1_554  A
C1954      C1962   1.391       .  A
C1955      C1963   1.389       .  A
C1955      C2290   1.422   1_455  A
C1956      C1964   1.385       .  A
C1957      C1958   1.371       .  A
C1957      H1969   1.077       .  S
C1958      H1970   1.083       .  S
C1959      C1960   1.372       .  A
C1959      H1971   1.083       .  S
C1960      H1972   1.078       .  S
C1961      C1962   1.373       .  A
C1961      H1973   1.082       .  S
C1962      H1974   1.081       .  S
C1963      C1964   1.374       .  A
C1963      H1975   1.081       .  S
C1964      H1976   1.082       .  S
C1965      C2266   1.492       .  S
C1966      C2279   1.415   1_554  A
C1967      C2261   1.492       .  S
C1968      C2275   1.419       .  A
C1968      C2378   1.487       .  S
N1979      C1984   1.352       .  A
N1979      C1983   1.354       .  A
N1979      H2011   1.041       .  S
N1980      C1987   1.352       .  A
N1980      C1988   1.352       .  A
N1981      C1986   1.352       .  A
N1981      C1985   1.350       .  A
N1981      H2012   1.041       .  S
N1982      C1989   1.351       .  A
N1982      C1990   1.351       .  A
C1983      C1991   1.385       .  A
C1983      C1999   1.411       .  A
C1984      C2000   1.416       .  A
C1984      C1992   1.387       .  A
C1985      C1993   1.386       .  A
C1985      C2002   1.412       .  A
C1986      C2001   1.407       .  A
C1986      C1994   1.385       .  A
C1987      C1999   1.418       .  A
C1987      C1995   1.389       .  A
C1988      C2002   1.411       .  A
C1988      C1996   1.384       .  A
C1989      C1997   1.385       .  A
C1989      C2000   1.410       .  A
C1990      C1998   1.388       .  A
C1990      C2001   1.414       .  A
C1991      C1992   1.377       .  A
C1991      H2003   1.082       .  S
C1992      H2004   1.079       .  S
C1993      C1994   1.377       .  A
C1993      H2005   1.081       .  S
C1994      H2006   1.082       .  S
C1995      C1996   1.375       .  A
C1995      H2007   1.082       .  S
C1996      H2008   1.081       .  S
C1997      C1998   1.376       .  A
C1997      H2009   1.082       .  S
C1998      H2010   1.082       .  S
C1999      C2102   1.482       .  S
C2000      C2265   1.486       .  S
C2001      C2070   1.476       .  S
C2002      C2262   1.489       .  S
O2013      C2048   1.235       .  S
O2013     Mg2345   2.166   1_554  S
C2014      H2053   1.081       .  S
C2014      O2027   1.234       .  S
C2014      O2051   1.269       .  A
Mg2015     O2368   2.163   1_554  S
Mg2015     O2383   2.303   1_554  S
Mg2015     O2055   2.245       .  S
Mg2015     O2026   2.305       .  S
O2016      C2037   1.234       .  S
O2016     Mg2382   2.150   1_554  S
O2016     Mg2041   2.145       .  S
O2017     Mg2041   2.298       .  S
C2018      C2454   1.478       .  S
C2018      O2032   1.273       .  A
O2019     Mg2021   2.297       .  S
O2020     Mg2052   2.262       .  S
Mg2021     O2337   2.173       .  S
Mg2021     O2035   2.253       .  S
Mg2021     O2347   2.284       .  S
C2022      O2028   1.269       .  A
O2023     Mg2345   2.283   1_554  S
H2024      C2037   1.081       .  S
C2025      H2050   1.081       .  S
C2025      O2039   1.235       .  S
O2026      C2049   1.270       .  A
O2027     Mg2365   2.162       .  S
O2028     Mg2382   2.277   1_554  S
C2029      C2198   1.479       .  S
C2029      O2042   1.268       .  A
C2029      O2034   1.273       .  A
C2030      C2132   1.472       .  S
C2030      O2057   1.269       .  A
Mg2031     O2363   2.162   1_554  S
Mg2031     O2356   2.294   1_554  S
Mg2031     O2033   2.307       .  S
Mg2031     O2060   2.252       .  S
O2032     Mg2355   2.298       .  S
O2034     Mg2365   2.299       .  S
O2035      C2054   1.269       .  A
O2036      C2056   1.274       .  A
O2036     Mg2376   2.304   1_554  S
O2038      C2049   1.234       .  S
O2038     Mg2376   2.170   1_554  S
O2039     Mg2355   2.157       .  S
O2040     Mg2052   2.316   1_545  S
Mg2041     O2351   2.159   1_554  S
Mg2041     O2358   2.287   1_554  S
Mg2041     O2057   2.247       .  S
O2042     Mg2058   2.253       .  S
H2043      C2048   1.081       .  S
O2044      C2047   1.235       .  S
O2044     Mg2339   2.170       .  S
O2044     Mg2052   2.154       .  S
H2045      C2047   1.081       .  S
H2046      C2049   1.081       .  S
O2051     Mg2058   2.304       .  S
Mg2052     O2362   2.154       .  S
Mg2052     O2360   2.306       .  S
C2054      C2292   1.476       .  S
O2055      C2056   1.268       .  A
C2056      C2524   1.477       .  S
Mg2058     O2340   2.155       .  S
Mg2058     O2352   2.281       .  S
O2059     Mg2339   2.288       .  S
O2061      C2096   1.234       .  S
O2061     Mg2069   2.159       .  S
C2062      H2101   1.081       .  S
C2062      O2075   1.234       .  S
C2062      O2099   1.270       .  A
Mg2063     O2092   2.173       .  S
Mg2063     O2107   2.302       .  S
Mg2063     O2103   2.259       .  S
Mg2063     O2074   2.304       .  S
O2064      C2085   1.236       .  S
O2064     Mg2106   2.153       .  S
O2064     Mg2089   2.158       .  S
O2065     Mg2089   2.303   1_545  S
C2066      C2166   1.485       .  S
C2066      O2068   1.270       .  A
O2067     Mg2069   2.307   1_455  S
O2068     Mg2100   2.264       .  S
Mg2069     O2083   2.257       .  S
Mg2069     O2071   2.279       .  S
C2070      O2108   1.269       .  A
O2071      C2078   1.270       .  A
H2072      C2085   1.081       .  S
C2073      H2098   1.081       .  S
C2073      O2087   1.234       .  S
O2074      C2097   1.269       .  A
O2075     Mg2089   2.155       .  S
O2076     Mg2106   2.299       .  S
C2077      C2233   1.482       .  S
C2077      O2090   1.270       .  A
C2077      O2082   1.271       .  A
C2078      C2164   1.474       .  S
Mg2079     O2087   2.148       .  S
Mg2079     O2080   2.303       .  S
Mg2079     O2081   2.311       .  S
Mg2079     O2108   2.254       .  S
O2082     Mg2089   2.293       .  S
O2084      C2104   1.272       .  A
O2084     Mg2100   2.293       .  S
O2086      C2097   1.233       .  S
O2086     Mg2100   2.156       .  S
O2088     Mg2100   2.312       .  S
Mg2089     O2105   2.260       .  S
O2090     Mg2106   2.265       .  S
H2091      C2096   1.081       .  S
O2092      C2095   1.234       .  S
O2092     Mg2100   2.158       .  S
H2093      C2095   1.081       .  S
H2094      C2097   1.081       .  S
O2099     Mg2106   2.305       .  S
C2102      O2107   1.274       .  A
O2103      C2104   1.270       .  A
C2104      C2231   1.476       .  S
N2109      C2114   1.354       .  A
N2109      C2113   1.356       .  A
N2109      H2141   1.039       .  S
N2110      C2117   1.350       .  A
N2110      C2118   1.350       .  A
N2111      C2116   1.357       .  A
N2111      C2115   1.353       .  A
N2111      H2142   1.037       .  S
N2112      C2119   1.351       .  A
N2112      C2120   1.352       .  A
C2113      C2121   1.386       .  A
C2113      C2129   1.417       .  A
C2114      C2130   1.417   1_554  A
C2114      C2122   1.388       .  A
C2115      C2123   1.390       .  A
C2115      C2456   1.420       .  A
C2116      C2131   1.416       .  A
C2116      C2124   1.385       .  A
C2117      C2129   1.412       .  A
C2117      C2125   1.388       .  A
C2118      C2132   1.406       .  A
C2118      C2126   1.385       .  A
C2119      C2127   1.385       .  A
C2119      C2454   1.408       .  A
C2120      C2128   1.385       .  A
C2120      C2131   1.415       .  A
C2121      C2122   1.375       .  A
C2121      H2133   1.082       .  S
C2122      H2134   1.082       .  S
C2123      C2124   1.376       .  A
C2123      H2135   1.082       .  S
C2124      H2136   1.082       .  S
C2125      C2126   1.366       .  A
C2125      H2137   1.078       .  S
C2126      H2138   1.082       .  S
C2127      C2128   1.374       .  A
C2127      H2139   1.082       .  S
C2128      H2140   1.081       .  S
C2129      C2257   1.488       .  S
C2130      C2443   1.405       .  A
C2130      C2342   1.474       .  S
C2131      C2254   1.496       .  S
C2132      C2439   1.420   1_554  A
N2143      C2148   1.351       .  A
N2143      C2147   1.355       .  A
N2143      H2175   1.038       .  S
N2144      C2151   1.350       .  A
N2144      C2152   1.350       .  A
N2145      C2150   1.357       .  A
N2145      C2149   1.358       .  A
N2145      H2176   1.037       .  S
N2146      C2153   1.353       .  A
N2146      C2154   1.352       .  A
C2147      C2155   1.386       .  A
C2147      C2163   1.412       .  A
C2148      C2164   1.416       .  A
C2148      C2156   1.389       .  A
C2149      C2157   1.390       .  A
C2149      C2166   1.427       .  A
C2150      C2165   1.423       .  A
C2150      C2158   1.385       .  A
C2151      C2163   1.412       .  A
C2151      C2159   1.384       .  A
C2152      C2166   1.409       .  A
C2152      C2160   1.386       .  A
C2153      C2161   1.382       .  A
C2153      C2164   1.408       .  A
C2154      C2162   1.390       .  A
C2154      C2165   1.418       .  A
C2155      C2156   1.374       .  A
C2155      H2167   1.082       .  S
C2156      H2168   1.083       .  S
C2157      C2158   1.379       .  A
C2157      H2169   1.082       .  S
C2158      H2170   1.082       .  S
C2159      C2160   1.371       .  A
C2159      H2171   1.081       .  S
C2160      H2172   1.081       .  S
C2161      C2162   1.369       .  A
C2161      H2173   1.083       .  S
C2162      H2174   1.079       .  S
C2163      C2258   1.490       .  S
C2165      C2253   1.494       .  S
N2177      C2182   1.356       .  A
N2177      C2181   1.357       .  A
N2177      H2209   1.037       .  S
N2178      C2185   1.350       .  A
N2178      C2186   1.351       .  A
N2179      C2184   1.357       .  A
N2179      C2183   1.353       .  A
N2179      H2210   1.039       .  S
N2180      C2187   1.350       .  A
N2180      C2188   1.351       .  A
C2181      C2189   1.386       .  A
C2181      C2197   1.419       .  A
C2182      C2522   1.423   1_554  A
C2182      C2190   1.390       .  A
C2183      C2191   1.389       .  A
C2183      C2200   1.418       .  A
C2184      C2199   1.416       .  A
C2184      C2192   1.386       .  A
C2185      C2197   1.417       .  A
C2185      C2193   1.387       .  A
C2186      C2524   1.413       .  A
C2186      C2194   1.385       .  A
C2187      C2195   1.384       .  A
C2187      C2198   1.409       .  A
C2188      C2196   1.386       .  A
C2188      C2199   1.413       .  A
C2189      C2190   1.376       .  A
C2189      H2201   1.082       .  S
C2190      H2202   1.082       .  S
C2191      C2192   1.376       .  A
C2191      H2203   1.082       .  S
C2192      H2204   1.082       .  S
C2193      C2194   1.371       .  A
C2193      H2205   1.080       .  S
C2194      H2206   1.082       .  S
C2195      C2196   1.373       .  A
C2195      H2207   1.082       .  S
C2196      H2208   1.079       .  S
C2197      C2249   1.491       .  S
C2198      C2506   1.423       .  A
C2199      C2246   1.491       .  S
C2200      C2510   1.409       .  A
C2200      C2380   1.477       .  S
N2211      C2216   1.356       .  A
N2211      C2215   1.353       .  A
N2211      H2243   1.038       .  S
N2212      C2219   1.350       .  A
N2212      C2220   1.350       .  A
N2213      C2218   1.354       .  A
N2213      C2217   1.357       .  A
N2213      H2244   1.039       .  S
N2214      C2221   1.352       .  A
N2214      C2222   1.351       .  A
C2215      C2223   1.388       .  A
C2215      C2231   1.418       .  A
C2216      C2232   1.419       .  A
C2216      C2224   1.388       .  A
C2217      C2225   1.385       .  A
C2217      C2234   1.417       .  A
C2218      C2233   1.424       .  A
C2218      C2226   1.391       .  A
C2219      C2231   1.406       .  A
C2219      C2227   1.383       .  A
C2220      C2234   1.413       .  A
C2220      C2228   1.387       .  A
C2221      C2229   1.387       .  A
C2221      C2232   1.415       .  A
C2222      C2230   1.386       .  A
C2222      C2233   1.413       .  A
C2223      C2224   1.375       .  A
C2223      H2235   1.083       .  S
C2224      H2236   1.081       .  S
C2225      C2226   1.377       .  A
C2225      H2237   1.082       .  S
C2226      H2238   1.081       .  S
C2227      C2228   1.373       .  A
C2227      H2239   1.082       .  S
C2228      H2240   1.079       .  S
C2229      C2230   1.373       .  A
C2229      H2241   1.081       .  S
C2230      H2242   1.082       .  S
C2232      C2250   1.491       .  S
C2234      C2245   1.491       .  S
C2245      C2246   1.342       .  D
C2245      H2247   1.086       .  S
C2246      H2248   1.086       .  S
C2249      C2250   1.347       .  D
C2249      H2251   1.086       .  S
C2250      H2252   1.087       .  S
C2253      C2254   1.347       .  D
C2254      H2256   1.086       .  S
C2257      C2258   1.345       .  D
C2258      H2260   1.086       .  S
C2261      C2262   1.347       .  D
C2261      H2263   1.087       .  S
C2265      C2266   1.342       .  D
C2265      H2267   1.086       .  S
N2269      C2274   1.353       .  A
N2269      C2273   1.352       .  A
N2269      H2301   1.039       .  S
N2270      C2277   1.354       .  A
N2270      C2278   1.352       .  A
N2271      C2276   1.357       .  A
N2271      C2275   1.356       .  A
N2271      H2302   1.036       .  S
C2273      C2281   1.385       .  A
C2273      C2289   1.414       .  A
C2274      C2282   1.387       .  A
C2275      C2283   1.385       .  A
C2276      C2291   1.426       .  A
C2276      C2284   1.390       .  A
C2277      C2289   1.411       .  A
C2277      C2285   1.384       .  A
C2278      C2292   1.418       .  A
C2278      C2286   1.389       .  A
C2279      C2287   1.386       .  A
C2280      C2288   1.388       .  A
C2281      C2282   1.374       .  A
C2281      H2293   1.082       .  S
C2282      H2294   1.082       .  S
C2283      C2284   1.375       .  A
C2283      H2295   1.082       .  S
C2284      H2296   1.081       .  S
C2285      C2286   1.372       .  A
C2285      H2297   1.082       .  S
C2286      H2298   1.082       .  S
C2287      C2288   1.369       .  A
C2287      H2299   1.083       .  S
C2288      H2300   1.078       .  S
C2289      C2590   1.491       .  S
C2291      C2585   1.498       .  S
N2303      C2308   1.353       .  A
N2303      C2307   1.353       .  A
N2303      H2335   1.030       .  S
N2304      C2311   1.354       .  A
N2304      C2312   1.355       .  A
N2305      C2310   1.354       .  A
N2305      C2309   1.354       .  A
N2305      H2336   1.038       .  S
N2306      C2313   1.355       .  A
N2306      C2314   1.353       .  A
C2307      C2315   1.385       .  A
C2307      C2323   1.415       .  A
C2308      C2324   1.422       .  A
C2308      C2316   1.391       .  A
C2309      C2317   1.388       .  A
C2309      C2326   1.417       .  A
C2310      C2325   1.413       .  A
C2310      C2318   1.386       .  A
C2311      C2323   1.423       .  A
C2311      C2319   1.389       .  A
C2312      C2326   1.417       .  A
C2312      C2320   1.384       .  A
C2313      C2321   1.386       .  A
C2313      C2324   1.421       .  A
C2314      C2322   1.388       .  A
C2314      C2325   1.420       .  A
C2315      C2316   1.373       .  A
C2315      H2327   1.082       .  S
C2316      H2328   1.080       .  S
C2317      C2318   1.374       .  A
C2317      H2329   1.082       .  S
C2318      H2330   1.082       .  S
C2319      C2320   1.373       .  A
C2319      H2331   1.083       .  S
C2320      H2332   1.080       .  S
C2321      C2322   1.373       .  A
C2321      H2333   1.082       .  S
C2322      H2334   1.082       .  S
C2323      C2426   1.479       .  S
C2324      C2589   1.492       .  S
C2325      C2394   1.480       .  S
C2326      C2586   1.494       .  S
O2337      C2372   1.235       .  S
C2338      H2377   1.081       .  S
C2338      O2351   1.234       .  S
C2338      O2375   1.269       .  A
Mg2339     O2379   2.253       .  S
Mg2339     O2350   2.302       .  S
O2340      C2361   1.235       .  S
O2340     Mg2365   2.151       .  S
O2341     Mg2365   2.304       .  S
C2342      O2356   1.272       .  A
O2343     Mg2345   2.299       .  S
O2344     Mg2376   2.266       .  S
Mg2345     O2359   2.274       .  S
C2346      O2352   1.270       .  A
H2348      C2361   1.081       .  S
C2349      H2374   1.081       .  S
C2349      O2363   1.234       .  S
O2350      C2373   1.269       .  A
C2353      C2522   1.477       .  S
C2353      O2366   1.270       .  A
C2353      O2358   1.271       .  A
C2354      C2456   1.475       .  S
C2354      O2381   1.269       .  A
Mg2355     O2357   2.312       .  S
Mg2355     O2384   2.273       .  S
O2359      C2378   1.271       .  A
O2360      C2380   1.274       .  A
O2362      C2373   1.233       .  S
O2364     Mg2376   2.305   1_545  S
Mg2365     O2381   2.257       .  S
O2366     Mg2382   2.264       .  S
H2367      C2372   1.081       .  S
O2368      C2371   1.234       .  S
O2368     Mg2376   2.157       .  S
H2369      C2371   1.081       .  S
H2370      C2373   1.081       .  S
O2375     Mg2382   2.301       .  S
O2379      C2380   1.269       .  A
O2385      C2420   1.234       .  S
O2385     Mg2393   2.164       .  S
C2386      H2425   1.081       .  S
C2386      O2399   1.235       .  S
C2386      O2423   1.269       .  A
Mg2387     O2416   2.155       .  S
Mg2387     O2431   2.297       .  S
Mg2387     O2427   2.275       .  S
Mg2387     O2398   2.308       .  S
O2388      C2409   1.234       .  S
O2388     Mg2430   2.158       .  S
O2388     Mg2413   2.146       .  S
O2389     Mg2413   2.295       .  S
C2390      C2490   1.486       .  S
C2390      O2392   1.270       .  A
O2391     Mg2393   2.302   1_455  S
O2392     Mg2424   2.268       .  S
Mg2393     O2407   2.259       .  S
Mg2393     O2395   2.286       .  S
C2394      O2432   1.270       .  A
O2395      C2402   1.271       .  A
H2396      C2409   1.081       .  S
C2397      H2422   1.081       .  S
C2397      O2411   1.234       .  S
O2398      C2421   1.270       .  A
O2399     Mg2413   2.175       .  S
O2400     Mg2430   2.285       .  S
C2401      C2557   1.479       .  S
C2401      O2414   1.271       .  A
C2401      O2406   1.271       .  A
C2402      C2488   1.478       .  S
Mg2403     O2411   2.150       .  S
Mg2403     O2404   2.305       .  S
Mg2403     O2405   2.310       .  S
Mg2403     O2432   2.268       .  S
O2406     Mg2413   2.283       .  S
O2408      C2428   1.275       .  A
O2408     Mg2424   2.310       .  S
O2410      C2421   1.235       .  S
O2410     Mg2424   2.154       .  S
O2412     Mg2424   2.313       .  S
Mg2413     O2429   2.258       .  S
O2414     Mg2430   2.272       .  S
H2415      C2420   1.081       .  S
O2416      C2419   1.234       .  S
O2416     Mg2424   2.153       .  S
H2417      C2419   1.081       .  S
H2418      C2421   1.081       .  S
O2423     Mg2430   2.299       .  S
C2426      O2431   1.273       .  A
O2427      C2428   1.271       .  A
C2428      C2555   1.487       .  S
N2433      C2438   1.355       .  A
N2433      C2437   1.358       .  A
N2433      H2465   1.038       .  S
N2434      C2441   1.352       .  A
N2434      C2442   1.351       .  A
N2435      C2440   1.357       .  A
N2435      C2439   1.353       .  A
N2435      H2466   1.037       .  S
N2436      C2443   1.350       .  A
N2436      C2444   1.350       .  A
C2437      C2445   1.386       .  A
C2437      C2453   1.422       .  A
C2438      C2454   1.421       .  A
C2438      C2446   1.388       .  A
C2439      C2447   1.390       .  A
C2440      C2455   1.416       .  A
C2440      C2448   1.385       .  A
C2441      C2453   1.415       .  A
C2441      C2449   1.388       .  A
C2442      C2456   1.408       .  A
C2442      C2450   1.384       .  A
C2443      C2451   1.384       .  A
C2444      C2452   1.386       .  A
C2444      C2455   1.414       .  A
C2445      C2446   1.377       .  A
C2445      H2457   1.081       .  S
C2446      H2458   1.082       .  S
C2447      C2448   1.377       .  A
C2447      H2459   1.082       .  S
C2448      H2460   1.082       .  S
C2449      C2450   1.366       .  A
C2449      H2461   1.077       .  S
C2450      H2462   1.082       .  S
C2451      C2452   1.373       .  A
C2451      H2463   1.082       .  S
C2452      H2464   1.081       .  S
C2453      C2581   1.495       .  S
C2455      C2578   1.496       .  S
N2467      C2472   1.353       .  A
N2467      C2471   1.356       .  A
N2467      H2499   1.038       .  S
N2468      C2475   1.351       .  A
N2468      C2476   1.352       .  A
N2469      C2474   1.356       .  A
N2469      C2473   1.357       .  A
N2469      H2500   1.039       .  S
N2470      C2477   1.353       .  A
N2470      C2478   1.352       .  A
C2471      C2479   1.386       .  A
C2471      C2487   1.414       .  A
C2472      C2488   1.418       .  A
C2472      C2480   1.389       .  A
C2473      C2481   1.391       .  A
C2473      C2490   1.424       .  A
C2474      C2489   1.419       .  A
C2474      C2482   1.384       .  A
C2475      C2487   1.415       .  A
C2475      C2483   1.384       .  A
C2476      C2490   1.412       .  A
C2476      C2484   1.386       .  A
C2477      C2485   1.383       .  A
C2477      C2488   1.408       .  A
C2478      C2486   1.389       .  A
C2478      C2489   1.417       .  A
C2479      C2480   1.375       .  A
C2479      H2491   1.081       .  S
C2480      H2492   1.083       .  S
C2481      C2482   1.376       .  A
C2481      H2493   1.081       .  S
C2482      H2494   1.082       .  S
C2483      C2484   1.374       .  A
C2483      H2495   1.080       .  S
C2484      H2496   1.081       .  S
C2485      C2486   1.370       .  A
C2485      H2497   1.083       .  S
C2486      H2498   1.079       .  S
C2487      C2582   1.496       .  S
C2489      C2577   1.495       .  S
N2501      C2506   1.355       .  A
N2501      C2505   1.358       .  A
N2501      H2533   1.037       .  S
N2502      C2509   1.351       .  A
N2502      C2510   1.351       .  A
N2503      C2508   1.358       .  A
N2503      C2507   1.354       .  A
N2503      H2534   1.031       .  S
N2504      C2511   1.349       .  A
N2504      C2512   1.349       .  A
C2505      C2513   1.387       .  A
C2505      C2521   1.423       .  A
C2506      C2514   1.389       .  A
C2507      C2515   1.389       .  A
C2507      C2524   1.426   1_556  A
C2508      C2523   1.426       .  A
C2508      C2516   1.386       .  A
C2509      C2521   1.418       .  A
C2509      C2517   1.390       .  A
C2510      C2518   1.383       .  A
C2511      C2519   1.384       .  A
C2511      C2522   1.408       .  A
C2512      C2520   1.390       .  A
C2512      C2523   1.418       .  A
C2513      C2514   1.376       .  A
C2513      H2525   1.081       .  S
C2514      H2526   1.082       .  S
C2515      C2516   1.374       .  A
C2515      H2527   1.083       .  S
C2516      H2528   1.079       .  S
C2517      C2518   1.375       .  A
C2517      H2529   1.081       .  S
C2518      H2530   1.083       .  S
C2519      C2520   1.371       .  A
C2519      H2531   1.082       .  S
C2520      H2532   1.081       .  S
C2521      C2573   1.493       .  S
C2523      C2570   1.493       .  S
N2535      C2540   1.357       .  A
N2535      C2539   1.356       .  A
N2535      H2567   1.032       .  S
N2536      C2543   1.354       .  A
N2536      C2544   1.352       .  A
N2537      C2542   1.355       .  A
N2537      C2541   1.355       .  A
N2537      H2568   1.034       .  S
N2538      C2545   1.351       .  A
N2538      C2546   1.352       .  A
C2539      C2547   1.391       .  A
C2539      C2555   1.427       .  A
C2540      C2556   1.421       .  A
C2540      C2548   1.385       .  A
C2541      C2549   1.385       .  A
C2541      C2558   1.417       .  A
C2542      C2557   1.422       .  A
C2542      C2550   1.390       .  A
C2543      C2555   1.415       .  A
C2543      C2551   1.385       .  A
C2544      C2558   1.418       .  A
C2544      C2552   1.387       .  A
C2545      C2553   1.388       .  A
C2545      C2556   1.419       .  A
C2546      C2554   1.383       .  A
C2546      C2557   1.410       .  A
C2547      C2548   1.376       .  A
C2547      H2559   1.082       .  S
C2548      H2560   1.082       .  S
C2549      C2550   1.374       .  A
C2549      H2561   1.080       .  S
C2550      H2562   1.083       .  S
C2551      C2552   1.373       .  A
C2551      H2563   1.082       .  S
C2552      H2564   1.081       .  S
C2553      C2554   1.371       .  A
C2553      H2565   1.079       .  S
C2554      H2566   1.082       .  S
C2556      C2574   1.492       .  S
C2558      C2569   1.490       .  S
C2569      C2570   1.344       .  D
C2569      H2571   1.086       .  S
C2570      H2572   1.087       .  S
C2573      C2574   1.348       .  D
C2573      H2575   1.087       .  S
C2574      H2576   1.086       .  S
C2577      C2578   1.348       .  D
C2578      H2580   1.086       .  S
C2581      C2582   1.346       .  D
C2582      H2584   1.086       .  S
C2585      C2586   1.348       .  D
C2585      H2587   1.087       .  S
C2589      C2590   1.346       .  D
C2589      H2591   1.087       .  S
