geometry optimzed in LAMMPS
_audit_creation_date              2020-12-01 
_audit_creation_method            'lammps2cif' 
_symmetry_space_group_name_H-M    'P1' 
_symmetry_Int_Tables_number       1 
_symmetry_cell_setting            triclinic 
loop_ 
_symmetry_equiv_pos_as_xyz 
  x,y,z 
_cell_length_a                    67.30348206 
_cell_length_b                    67.30245163826716 
_cell_length_c                    67.30352113940518 
_cell_angle_alpha                 90.00400342780844 
_cell_angle_beta                  89.97674205837575 
_cell_angle_gamma                 89.99806787451023 
loop_ 
_atom_site_label 
_atom_site_type_symbol 
_atom_site_fract_x 
_atom_site_fract_y 
_atom_site_fract_z 
_atom_site_charge 
N1          N  0.71161425  0.26335773  0.59110787     0.01800
C2          C  0.69740747  0.26173998  0.60543252     0.04400
C3          C  0.67872085  0.26398713  0.59732249    -0.18500
C4          C  0.68134680  0.26722373  0.57735803    -0.18700
C5          C  0.70155146  0.26683601  0.57394378     0.04300
H6          H  0.66469651  0.26392146  0.60520090     0.18000
H7          H  0.66978431  0.27018843  0.56658568     0.18100
N8          N  0.77089628  0.25378157  0.59171725     0.01800
C9          C  0.78495493  0.25507357  0.60622118     0.04400
C10         C  0.80345736  0.25038758  0.59873125    -0.18500
C11         C  0.80087681  0.24603483  0.57897483    -0.18700
C12         C  0.78087978  0.24819458  0.57505478     0.04300
H13         H  0.81730693  0.24978487  0.60688046     0.18000
H14         H  0.81231219  0.24141544  0.56864817     0.18100
N15         N  0.72094236  0.27949609  0.50196084     0.01800
C16         C  0.70996037  0.28526591  0.51769267     0.04400
C17         C  0.69599215  0.29907463  0.51168142    -0.18500
C18         C  0.69875607  0.30179607  0.49145465    -0.18700
C19         C  0.71420230  0.28943049  0.48592925     0.04300
H20         H  0.68495876  0.30628715  0.52089889     0.18000
H21         H  0.69047434  0.31174368  0.48191426     0.18100
N22         N  0.76339753  0.23820011  0.50229302     0.01800
C23         C  0.77008198  0.22807722  0.48633975     0.04400
C24         C  0.78394590  0.21414921  0.49230548    -0.18500
C25         C  0.78576609  0.21604203  0.51272509    -0.18700
C26         C  0.77283091  0.23095034  0.51841622     0.04300
H27         H  0.79181996  0.20373408  0.48291228     0.18000
H28         H  0.79553104  0.20757013  0.52228646     0.18100
N29         N  0.73789388  0.28962785  0.41307531     0.01800
C30         C  0.73934376  0.30402740  0.39893195     0.04400
C31         C  0.73633768  0.32254575  0.40721247    -0.18500
C32         C  0.73280069  0.31959016  0.42709129    -0.18700
C33         C  0.73376091  0.29936817  0.43028264     0.04300
H34         H  0.73608511  0.33665261  0.39949457     0.18000
H35         H  0.72924159  0.33092533  0.43793391     0.18100
N36         N  0.75029234  0.23088783  0.41217565     0.01800
C37         C  0.75052483  0.21697610  0.39746440     0.04400
C38         C  0.75632759  0.19876478  0.40485578    -0.18500
C39         C  0.75980491  0.20135539  0.42477056    -0.18700
C40         C  0.75602103  0.22106862  0.42888459     0.04300
H41         H  0.75806945  0.18508326  0.39657931     0.18000
H42         H  0.76479864  0.19010671  0.43511964     0.18100
O43         O  0.75699650  0.28009664  0.30011504    -0.69200
O44         O  0.75626167  0.33693695  0.29969623    -0.69200
O45         O  0.75744418  0.30797602  0.32875600    -0.69300
O46         O  0.75578876  0.30830973  0.27175677    -0.69300
O47         O  0.72263242  0.30777057  0.27270531    -0.69200
O48         O  0.72430208  0.30751133  0.32967899    -0.69200
O49         O  0.72311089  0.33647957  0.30059092    -0.69200
O50         O  0.72383456  0.27951349  0.30108667    -0.69300
Ni51       Ni  0.75780087  0.30844430  0.30014126     1.25400
Ni52       Ni  0.72227673  0.30790780  0.30114835     1.25400
C53         C  0.74057894  0.27051110  0.30043582     0.93000
C54         C  0.73954163  0.34597404  0.29904524     0.92900
C55         C  0.74114619  0.30662548  0.33850783     0.93000
C56         C  0.73894887  0.30783377  0.26291398     0.93100
O57         O  0.75560742  0.23916855  0.20264491    -0.69200
O58         O  0.75796035  0.18228659  0.20306666    -0.69200
O59         O  0.75647514  0.21134500  0.17409958    -0.69300
O60         O  0.75713694  0.21090551  0.23093958    -0.69300
O61         O  0.72398743  0.20961191  0.23149086    -0.69200
O62         O  0.72333240  0.21014145  0.17450357    -0.69200
O63         O  0.72482538  0.18102330  0.20348980    -0.69200
O64         O  0.72245339  0.23795758  0.20315767    -0.69300
Ni65       Ni  0.75797071  0.21086934  0.20258146     1.25400
Ni66       Ni  0.72245295  0.20952028  0.20307708     1.25400
C67         C  0.73868859  0.24786189  0.20299575     0.93000
C68         C  0.74176699  0.17238279  0.20441502     0.92900
C69         C  0.73976411  0.21200597  0.16505778     0.93000
C70         C  0.74071359  0.21043843  0.24051706     0.93100
O71         O  0.75466182  0.30754012  0.23139297    -0.69200
O72         O  0.75304512  0.30705628  0.17441357    -0.69200
O73         O  0.75341193  0.33600519  0.20362348    -0.69300
O74         O  0.75440190  0.27921094  0.20289463    -0.69300
O75         O  0.72124274  0.27851036  0.20373891    -0.69200
O76         O  0.72026848  0.33555986  0.20467083    -0.69200
O77         O  0.71990635  0.30655505  0.17530724    -0.69200
O78         O  0.72150752  0.30689797  0.23233029    -0.69300
Ni79       Ni  0.75504508  0.30755699  0.20294568     1.25400
Ni80       Ni  0.71952693  0.30694367  0.20394228     1.25400
C81         C  0.73834262  0.30737648  0.24118046     0.93000
C82         C  0.73624830  0.30558258  0.16557272     0.92900
C83         C  0.73677442  0.34501262  0.20558396     0.93000
C84         C  0.73803322  0.26955715  0.20322551     0.93100
O85         O  0.75805734  0.21165994  0.27099727    -0.69200
O86         O  0.75995550  0.21244389  0.32784377    -0.69200
O87         O  0.76006299  0.18331061  0.29880515    -0.69300
O88         O  0.75798176  0.24009703  0.29934147    -0.69300
O89         O  0.72483817  0.23898697  0.30047160    -0.69200
O90         O  0.72694396  0.18199558  0.29988358    -0.69200
O91         O  0.72683911  0.21124097  0.32904015    -0.69200
O92         O  0.72491651  0.21044792  0.27203182    -0.69300
Ni93       Ni  0.76018921  0.21182898  0.29929938     1.25400
Ni94       Ni  0.72468866  0.21052800  0.30049577     1.25400
C95         C  0.74121236  0.21088064  0.26221328     0.93000
C96         C  0.74368471  0.21323309  0.33768954     0.92900
C97         C  0.74383709  0.17341547  0.29796760     0.93000
C98         C  0.74111301  0.24883448  0.30004672     0.93100
N99         N  0.71221394  0.91956208  0.24619694     0.01800
C100        C  0.69797522  0.90521484  0.24688536     0.04400
C101        C  0.67967592  0.91297928  0.24189538    -0.18500
C102        C  0.68258588  0.93278833  0.23799624    -0.18700
C103        C  0.70256690  0.93643264  0.24073049     0.04300
H104        H  0.66574568  0.90500617  0.24087702     0.18000
H105        H  0.67138204  0.94334291  0.23334349     0.18100
N106        N  0.77052682  0.91925420  0.26043247     0.01800
C107        C  0.78473730  0.90488264  0.25981686     0.04400
C108        C  0.80268748  0.91219048  0.26649158    -0.18500
C109        C  0.79959714  0.93175628  0.27134133    -0.18700
C110        C  0.77986551  0.93569973  0.26747405     0.04300
H111        H  0.81651893  0.90409839  0.26785049     0.18000
H112        H  0.81054867  0.94200028  0.27714920     0.18100
N113        N  0.72261406  0.00871800  0.23071047     0.01800
C114        C  0.71208674  0.99297300  0.22416848     0.04400
C115        C  0.69893211  0.99899994  0.20959733    -0.18500
C116        C  0.70172462  0.01924594  0.20717844    -0.18700
C117        C  0.71636929  0.02476510  0.22047396     0.04300
H118        H  0.68841939  0.98976832  0.20167037     0.18000
H119        H  0.69399639  0.02880742  0.19681387     0.18100
N120        N  0.76289416  0.00873845  0.27419357     0.01800
C121        C  0.76972809  0.02484169  0.28395917     0.04400
C122        C  0.78291148  0.01902585  0.29858363    -0.18500
C123        C  0.78416858  0.99852475  0.29753031    -0.18700
C124        C  0.77158369  0.99266719  0.28240653     0.04300
H125        H  0.79068770  0.02857908  0.30892048     0.18000
H126        H  0.79335954  0.98901042  0.30667248     0.18100
N127        N  0.73913101  0.09787316  0.22135053     0.01800
C128        C  0.74059382  0.11202997  0.20698158     0.04400
C129        C  0.73785569  0.10376487  0.18842239    -0.18500
C130        C  0.73449610  0.08385335  0.19131518    -0.18700
C131        C  0.73529664  0.08064076  0.21154155     0.04300
H132        H  0.73767280  0.11150653  0.17432797     0.18000
H133        H  0.73117513  0.07299141  0.17992920     0.18100
N134        N  0.75125444  0.09912205  0.28011853     0.01800
C135        C  0.75160806  0.11384569  0.29400386     0.04400
C136        C  0.75783603  0.10654475  0.31211173    -0.18500
C137        C  0.76143429  0.08665871  0.30948421    -0.18700
C138        C  0.75728879  0.08249982  0.28985787     0.04300
H139        H  0.75968774  0.11484399  0.32576359     0.18000
H140        H  0.76662285  0.07633723  0.32066994     0.18100
N141        N  0.73375386  0.42033141  0.28296597     0.01800
C142        C  0.73632125  0.40622208  0.29718826     0.04400
C143        C  0.73448922  0.41440236  0.31589602    -0.18500
C144        C  0.73054517  0.43424534  0.31323346    -0.18700
C145        C  0.73010734  0.43746825  0.29299183     0.04300
H146        H  0.73528756  0.40664325  0.32995958     0.18000
H147        H  0.72765238  0.44503205  0.32480823     0.18100
N148        N  0.74336446  0.41920673  0.22375810     0.01800
C149        C  0.74307879  0.40463357  0.20972419     0.04400
C150        C  0.74871727  0.41207495  0.19147308    -0.18500
C151        C  0.75258787  0.43189927  0.19417243    -0.18700
C152        C  0.74919390  0.43586120  0.21398135     0.04300
H153        H  0.75013621  0.40387834  0.17770678     0.18000
H154        H  0.75761271  0.44226667  0.18295061     0.18100
N155        N  0.71682331  0.50894926  0.27378382     0.01800
C156        C  0.70627571  0.52485067  0.27980019     0.04400
C157        C  0.69225690  0.51905887  0.29366426    -0.18500
C158        C  0.69458153  0.49875096  0.29619796    -0.18700
C159        C  0.70980865  0.49300072  0.28365033     0.04300
H160        H  0.68155388  0.52848395  0.30110313     0.18000
H161        H  0.68622267  0.48932574  0.30619760     0.18100
N162        N  0.75818028  0.50880035  0.23132771     0.01800
C163        C  0.76442555  0.49269495  0.22120044     0.04400
C164        C  0.77798575  0.49828441  0.20683802    -0.18500
C165        C  0.78008739  0.51867060  0.20841177    -0.18700
C166        C  0.76761434  0.52468028  0.22357468     0.04300
H167        H  0.78541175  0.48866999  0.19629629     0.18000
H168        H  0.78968983  0.52802287  0.19952257     0.18100
N169        N  0.71023500  0.59827615  0.25805431     0.01800
C170        C  0.69643704  0.61297785  0.25726579     0.04400
C171        C  0.67772878  0.60570429  0.26135087    -0.18500
C172        C  0.67991135  0.58575121  0.26483931    -0.18700
C173        C  0.69987829  0.58158004  0.26276856     0.04300
H174        H  0.66403914  0.61410647  0.26218367     0.18000
H175        H  0.66825071  0.57545960  0.26893976     0.18100
N176        N  0.76838867  0.59865511  0.24295792     0.01800
C177        C  0.78262280  0.61303611  0.24163439     0.04400
C178        C  0.80023541  0.60507662  0.23477300    -0.18500
C179        C  0.79693146  0.58519765  0.23172614    -0.18700
C180        C  0.77741236  0.58168047  0.23683177     0.04300
H181        H  0.81397824  0.61296639  0.23201800     0.18000
H182        H  0.80754892  0.57449534  0.22611891     0.18100
N183        N  0.90298187  0.73176154  0.24189903     0.01800
C184        C  0.88851093  0.71760745  0.24158276     0.04400
C185        C  0.89656245  0.69910715  0.23797576    -0.18500
C186        C  0.91665269  0.70176443  0.23592977    -0.18700
C187        C  0.92016315  0.72179675  0.23836598     0.04300
H188        H  0.88861399  0.68518434  0.23669040     0.18000
H189        H  0.92750878  0.69036238  0.23264043     0.18100
N190        N  0.90291267  0.79088192  0.25270630     0.01800
C191        C  0.88826037  0.80478768  0.25170098     0.04400
C192        C  0.89562587  0.82340831  0.25606009    -0.18500
C193        C  0.91550342  0.82107193  0.25990304    -0.18700
C194        C  0.91960181  0.80110220  0.25776618     0.04300
H195        H  0.88732699  0.83716573  0.25679297     0.18000
H196        H  0.92581590  0.83265627  0.26415783     0.18100
N197        N  0.99341946  0.73879959  0.23184345     0.01800
C198        C  0.00946436  0.73107915  0.22269659     0.04400
C199        C  0.00375424  0.71582315  0.21020322    -0.18500
C200        C  0.98333881  0.71418719  0.21196657    -0.18700
C201        C  0.97745985  0.72862196  0.22533612     0.04300
H202        H  0.01328570  0.70706299  0.20065585     0.18000
H203        H  0.97387035  0.70369508  0.20429440     0.18100
N204        N  0.99290814  0.78556431  0.26830347     0.01800
C205        C  0.97667435  0.79616466  0.27337972     0.04400
C206        C  0.98213370  0.81189150  0.28540928    -0.18500
C207        C  0.00253630  0.81067441  0.28776250    -0.18700
C208        C  0.00872317  0.79433547  0.27696458     0.04300
H209        H  0.97241947  0.82306227  0.29169970     0.18000
H210        H  0.01177023  0.82054290  0.29647693     0.18100
N211        N  0.08205406  0.75504941  0.22224560     0.01800
C212        C  0.09623812  0.75587173  0.20791760     0.04400
C213        C  0.08888925  0.74913691  0.19000881    -0.18500
C214        C  0.06940989  0.74405266  0.19327609    -0.18700
C215        C  0.06562444  0.74784798  0.21306100     0.04300
H216        H  0.09692044  0.74778369  0.17613818     0.18000
H217        H  0.05915653  0.73805146  0.18244016     0.18100
N218        N  0.08222085  0.77256117  0.27962590     0.01800
C219        C  0.09647804  0.77300430  0.29398651     0.04400
C220        C  0.08885488  0.78071376  0.31139310    -0.18500
C221        C  0.06925911  0.78513170  0.30779791    -0.18700
C222        C  0.06557545  0.77998036  0.28831196     0.04300
H223        H  0.09675026  0.78300430  0.32521255     0.18000
H224        H  0.05883151  0.79150819  0.31825245     0.18100
O225        O  0.76163569  0.71090666  0.23270131    -0.69200
O226        O  0.81850024  0.71168031  0.22959635    -0.69200
O227        O  0.78937135  0.68238521  0.23073813    -0.69300
O228        O  0.78989585  0.73935413  0.23148165    -0.69300
O229        O  0.79177710  0.73883378  0.26460244    -0.69200
O230        O  0.79113373  0.68181921  0.26383929    -0.69200
O231        O  0.82027048  0.71106609  0.26270455    -0.69200
O232        O  0.76354045  0.71043892  0.26582941    -0.69300
Ni233      Ni  0.78990840  0.71097715  0.22992686     1.25400
Ni234      Ni  0.79186946  0.71040755  0.26541236     1.25400
C235        C  0.75332333  0.71068642  0.24981167     0.93000
C236        C  0.82859032  0.71290605  0.24569756     0.92900
C237        C  0.78870408  0.67285646  0.24721366     0.93000
C238        C  0.79077706  0.74840276  0.24818418     0.93100
O239        O  0.69429813  0.77925917  0.27013897    -0.69200
O240        O  0.69435813  0.83620389  0.26976561    -0.69200
O241        O  0.66546434  0.80685861  0.27123681    -0.69300
O242        O  0.72241372  0.80778613  0.26870634    -0.69300
O243        O  0.72100283  0.80758134  0.23556034    -0.69200
O244        O  0.66408520  0.80660696  0.23811002    -0.69200
O245        O  0.69290985  0.83590628  0.23663603    -0.69200
O246        O  0.69289102  0.77905731  0.23698454    -0.69300
Ni247      Ni  0.69408197  0.80764017  0.27115578     1.25400
Ni248      Ni  0.69256697  0.80738419  0.23564505     1.25400
C249        C  0.69373188  0.76987537  0.25360661     0.93000
C250        C  0.69483589  0.84531768  0.25306302     0.92900
C251        C  0.65551718  0.80537769  0.25507357     0.93000
C252        C  0.73101374  0.80766773  0.25173057     0.93100
O253        O  0.69299824  0.73890495  0.23712517    -0.69200
O254        O  0.69358978  0.68208024  0.23712243    -0.69200
O255        O  0.66463668  0.71095470  0.23903542    -0.69300
O256        O  0.72137278  0.71063448  0.23522475    -0.69300
O257        O  0.72354414  0.71071756  0.26834255    -0.69200
O258        O  0.66686423  0.71099688  0.27213876    -0.69200
O259        O  0.69581183  0.68216609  0.27022814    -0.69200
O260        O  0.69516574  0.73898154  0.27024304    -0.69300
Ni261      Ni  0.69299379  0.71055932  0.23594317     1.25400
Ni262      Ni  0.69535235  0.71063203  0.27143490     1.25400
C263        C  0.69399783  0.74822408  0.25367086     0.93000
C264        C  0.69577060  0.67289008  0.25362365     0.92900
C265        C  0.65653093  0.71206000  0.25620813     0.93000
C266        C  0.73171835  0.71068876  0.25117173     0.93100
O267        O  0.78996109  0.77977187  0.23217037    -0.69200
O268        O  0.78908306  0.83679131  0.23345543    -0.69200
O269        O  0.81836683  0.80789890  0.23167430    -0.69300
O270        O  0.76138386  0.80800753  0.23388084    -0.69300
O271        O  0.76266687  0.80728600  0.26702448    -0.69200
O272        O  0.81951163  0.80711721  0.26480895    -0.69200
O273        O  0.79039402  0.83589911  0.26658203    -0.69200
O274        O  0.79118149  0.77907160  0.26531757    -0.69300
Ni275      Ni  0.78974699  0.80823004  0.23159011     1.25400
Ni276      Ni  0.79107444  0.80740245  0.26709943     1.25400
C277        C  0.79063301  0.77011436  0.24855672     0.93000
C278        C  0.78846613  0.84559053  0.25033025     0.92900
C279        C  0.82820836  0.80641050  0.24790031     0.93000
C280        C  0.75271950  0.80764338  0.25082315     0.93100
N281        N  0.58236138  0.72786723  0.26458792     0.01800
C282        C  0.59693945  0.71390673  0.26415534     0.04400
C283        C  0.58957219  0.69553154  0.26945696    -0.18500
C284        C  0.56972348  0.69812503  0.27333185    -0.18700
C285        C  0.56571966  0.71799002  0.27026514     0.04300
H286        H  0.59781470  0.68177255  0.27064502     0.18000
H287        H  0.55936922  0.68679594  0.27813956     0.18100
N288        N  0.58134133  0.78648520  0.25192931     0.01800
C289        C  0.59524095  0.80114829  0.25309397     0.04400
C290        C  0.58670798  0.81940123  0.24929257    -0.18500
C291        C  0.56693374  0.81599269  0.24556208    -0.18700
C292        C  0.56405144  0.79576913  0.24720545     0.04300
H293        H  0.59420782  0.83361264  0.24862264     0.18000
H294        H  0.55597825  0.82700743  0.24141192     0.18100
N295        N  0.49259500  0.73396820  0.27738980     0.01800
C296        C  0.50873281  0.72505074  0.28518306     0.04400
C297        C  0.50296417  0.71130117  0.29930255    -0.18500
C298        C  0.48242301  0.71200789  0.30010316    -0.18700
C299        C  0.47653236  0.72604136  0.28631834     0.04300
H300        H  0.51255261  0.70159458  0.30781287     0.18000
H301        H  0.47289200  0.70320638  0.30960991     0.18100
N302        N  0.49292229  0.77414696  0.23383106     0.01800
C303        C  0.47737399  0.77954606  0.22240004     0.04400
C304        C  0.48365192  0.79275493  0.20797603    -0.18500
C305        C  0.50382920  0.79552991  0.21091242    -0.18700
C306        C  0.50907763  0.78380909  0.22693305     0.04300
H307        H  0.47458671  0.79970665  0.19666045     0.18000
H308        H  0.51349103  0.80522626  0.20246819     0.18100
N309        N  0.40226289  0.74426670  0.28188102     0.01800
C310        C  0.38751205  0.74372470  0.29571466     0.04400
C311        C  0.39457619  0.73664664  0.31360068    -0.18500
C312        C  0.41437904  0.73271414  0.31089857    -0.18700
C313        C  0.41870244  0.73751893  0.29145612     0.04300
H314        H  0.38619617  0.73454336  0.32716915     0.18000
H315        H  0.42457023  0.72699937  0.32194739     0.18100
N316        N  0.40288031  0.76109009  0.22415567     0.01800
C317        C  0.38828278  0.76213248  0.21015518    -0.02800
C318        C  0.39600966  0.76808635  0.19212710    -0.18500
C319        C  0.41601580  0.77080526  0.19491603    -0.18700
C320        C  0.41985568  0.76642749  0.21456101     0.04300
H321        H  0.38789377  0.77046821  0.17845031     0.18000
H322        H  0.42660754  0.77572665  0.18385560     0.18100
O323        O  0.29147358  0.77303389  0.27362033    -0.69200
O324        O  0.29084008  0.77036233  0.33052069    -0.69200
O325        O  0.31997232  0.77005921  0.30142066    -0.69300
O326        O  0.26309826  0.77332625  0.30195687    -0.69300
O327        O  0.26117835  0.74023875  0.30034488    -0.69200
O328        O  0.31794624  0.73699156  0.29984341    -0.69200
O329        O  0.28889291  0.73729586  0.32884743    -0.69200
O330        O  0.28955338  0.73994613  0.27202385    -0.69300
Ni331      Ni  0.29151769  0.77287830  0.30204006     1.25400
Ni332      Ni  0.28942583  0.73743122  0.30031061     1.25400
C333        C  0.29046548  0.75693546  0.26353137     0.93000
C334        C  0.28858189  0.75343429  0.33892462     0.92900
C335        C  0.32819072  0.75301530  0.29935206     0.93000
C336        C  0.25285444  0.75731860  0.30108920     0.93100
O337        O  0.22128930  0.74530401  0.20383693    -0.69200
O338        O  0.16453706  0.74679546  0.20427954    -0.69200
O339        O  0.19334094  0.74648935  0.17545530    -0.69300
O340        O  0.19294443  0.74558883  0.23219019    -0.69300
O341        O  0.19376179  0.77875796  0.23273545    -0.69200
O342        O  0.19419670  0.77965726  0.17576670    -0.69200
O343        O  0.16520948  0.77996472  0.20476554    -0.69200
O344        O  0.22215878  0.77847173  0.20433259    -0.69300
Ni345      Ni  0.19291855  0.74487961  0.20384207     1.25400
Ni346      Ni  0.19378234  0.78042916  0.20433772     1.25400
C347        C  0.23102240  0.76163233  0.20411278     0.93000
C348        C  0.15563143  0.76354202  0.20555069     0.92900
C349        C  0.19478938  0.76312026  0.16637006     0.93000
C350        C  0.19337751  0.76200664  0.24175999     0.93100
O351        O  0.22284437  0.77562728  0.30135617    -0.69200
O352        O  0.16599969  0.77875910  0.30106435    -0.69200
O353        O  0.19520402  0.77647017  0.33003437    -0.69300
O354        O  0.19440359  0.77789263  0.27311846    -0.69300
O355        O  0.19255085  0.74477267  0.27238350    -0.69200
O356        O  0.19333130  0.74337449  0.32937235    -0.69200
O357        O  0.16405230  0.74566886  0.30030188    -0.69200
O358        O  0.22097222  0.74250792  0.30062404    -0.69300
Ni359      Ni  0.19457087  0.77836665  0.30152593     1.25400
Ni360      Ni  0.19255244  0.74289337  0.30074692     1.25400
C361        C  0.23119552  0.75854630  0.30099531     0.93000
C362        C  0.15577837  0.76279175  0.29932846     0.92900
C363        C  0.19570199  0.75966092  0.33895601     0.93000
C364        C  0.19344738  0.76154788  0.26345048     0.93100
O365        O  0.28985169  0.74186486  0.23174982    -0.69200
O366        O  0.28935988  0.74465173  0.17479864    -0.69200
O367        O  0.31849803  0.74232389  0.20397008    -0.69300
O368        O  0.26151846  0.74413785  0.20339457    -0.69300
O369        O  0.26251462  0.77726291  0.20500785    -0.69200
O370        O  0.31941823  0.77542612  0.20564085    -0.69200
O371        O  0.29040407  0.77774770  0.17654787    -0.69200
O372        O  0.29082564  0.77499028  0.23338251    -0.69300
Ni373      Ni  0.28987277  0.74205295  0.20331560     1.25400
Ni374      Ni  0.29092877  0.77753285  0.20509883     1.25400
C375        C  0.29036392  0.75797582  0.24185846     0.93000
C376        C  0.28853436  0.76173552  0.16642897     0.92900
C377        C  0.32821347  0.75855213  0.20617650     0.93000
C378        C  0.25271526  0.76098801  0.20417981     0.93100
N379        N  0.27159566  0.74613216  0.41331538     0.01800
C380        C  0.28537264  0.74558480  0.39850563     0.04400
C381        C  0.30346397  0.73912994  0.40564198    -0.18500
C382        C  0.30095194  0.73558513  0.42554098    -0.18700
C383        C  0.28141312  0.73999061  0.42985796     0.04300
H384        H  0.31702770  0.73711596  0.39723148     0.18000
H385        H  0.31216443  0.73029098  0.43578028     0.18100
N386        N  0.21367664  0.76236073  0.41371138     0.01800
C387        C  0.19980339  0.76355542  0.39899406     0.04400
C388        C  0.18174088  0.76955914  0.40659981    -0.18500
C389        C  0.18436518  0.77214883  0.42664353    -0.18700
C390        C  0.20395173  0.76764599  0.43063808     0.04300
H391        H  0.16813164  0.77199877  0.39838792     0.18000
H392        H  0.17321527  0.77700040  0.43717453     0.18100
N393        N  0.26706331  0.73533254  0.50372275     0.01800
C394        C  0.27464855  0.72605122  0.51976723     0.04400
C395        C  0.28898716  0.71258004  0.51387427    -0.18500
C396        C  0.29011658  0.71381455  0.49337209    -0.18700
C397        C  0.27631111  0.72787998  0.48761149     0.04300
H398        H  0.29740290  0.70267758  0.52334554     0.18000
H399        H  0.29980248  0.70528412  0.48377384     0.18100
N400        N  0.22242986  0.77428418  0.50408782     0.01800
C401        C  0.21079084  0.77937444  0.48858506     0.04400
C402        C  0.19566088  0.79167348  0.49506381    -0.18500
C403        C  0.19836175  0.79418751  0.51531247    -0.18700
C404        C  0.21495807  0.78322275  0.52040026     0.04300
H405        H  0.18402135  0.79819301  0.48608744     0.18000
H406        H  0.18936851  0.80321239  0.52513001     0.18100
N407        N  0.25378063  0.72745724  0.59338587     0.01800
C408        C  0.25372602  0.71346192  0.60794032     0.04400
C409        C  0.25932384  0.69521081  0.60047082    -0.18500
C410        C  0.26300055  0.69793478  0.58059046    -0.18700
C411        C  0.25952262  0.71775117  0.57666104     0.04300
H412        H  0.26084760  0.68145611  0.60866352     0.18000
H413        H  0.26797908  0.68673454  0.57017523     0.18100
N414        N  0.24019299  0.78586493  0.59261737     0.01800
C415        C  0.24129061  0.80049915  0.60655150     0.04400
C416        C  0.23723058  0.81873430  0.59811016    -0.18500
C417        C  0.23340515  0.81535026  0.57835450    -0.18700
C418        C  0.23524791  0.79515663  0.57539256     0.04300
H419        H  0.23646236  0.83291377  0.60566279     0.18000
H420        H  0.22906809  0.82635633  0.56746443     0.18100
N421        N  0.23143516  0.73114216  0.91410814     0.01800
C422        C  0.23140164  0.71702006  0.89961508     0.04400
C423        C  0.22854614  0.69838407  0.90764832    -0.18500
C424        C  0.22666101  0.70092373  0.92776588    -0.18700
C425        C  0.22844518  0.72102171  0.93129866     0.04300
H426        H  0.22760377  0.68444980  0.89967006     0.18000
H427        H  0.22386308  0.68939576  0.93862549     0.18100
N428        N  0.24048047  0.79054857  0.91412933     0.01800
C429        C  0.23921720  0.80455264  0.89958783     0.04400
C430        C  0.24254994  0.82326822  0.90724690    -0.18500
C431        C  0.24605427  0.82088590  0.92717920    -0.18700
C432        C  0.24474228  0.80079624  0.93101416     0.04300
H433        H  0.24295367  0.83712395  0.89909187     0.18000
H434        H  0.24969470  0.83251551  0.93767562     0.18100
N435        N  0.22166105  0.73725155  0.00463821     0.01800
C436        C  0.21300618  0.72897254  0.02067187     0.04400
C437        C  0.20116993  0.71322000  0.01491455    -0.18500
C438        C  0.20284518  0.71185154  0.99447322    -0.18700
C439        C  0.21549964  0.72693309  0.98863837     0.04300
H440        H  0.19210132  0.70395460  0.02443395     0.18000
H441        H  0.19559282  0.70110233  0.98496231     0.18100
N442        N  0.25682207  0.78500983  0.00396417     0.01800
C443        C  0.26156362  0.79565901  0.98766753     0.04400
C444        C  0.27352440  0.81149641  0.99294785    -0.18500
C445        C  0.27618737  0.81030141  0.01331067    -0.18700
C446        C  0.26563084  0.79386376  0.01964541     0.04300
H447        H  0.27954273  0.82273977  0.98314701     0.18000
H448        H  0.28492170  0.82026434  0.02242307     0.18100
N449        N  0.21177495  0.75334423  0.09306452     0.01800
C450        C  0.19744054  0.75399281  0.10724393     0.04400
C451        C  0.17978435  0.74642830  0.10008896    -0.18500
C452        C  0.18321947  0.74101214  0.08072496    -0.18700
C453        C  0.20284819  0.74544394  0.07682592     0.04300
H454        H  0.16596866  0.74479525  0.10816212     0.18000
H455        H  0.17258947  0.73443393  0.07061072     0.18100
N456        N  0.26881049  0.77194053  0.09303876     0.01800
C457        C  0.28319281  0.77233410  0.10725984     0.04400
C458        C  0.30051618  0.78028740  0.09970191    -0.18500
C459        C  0.29684238  0.78489494  0.08016313    -0.18700
C460        C  0.27739533  0.77960853  0.07646178     0.04300
H461        H  0.31433586  0.78258679  0.10759420     0.18000
H462        H  0.30722951  0.79144409  0.06977665     0.18100
N463        N  0.23502548  0.91955295  0.72268114     0.01800
C464        C  0.23572463  0.90512023  0.70853048     0.04400
C465        C  0.23101516  0.91282047  0.69013289    -0.18500
C466        C  0.22727280  0.93268063  0.69288663    -0.18700
C467        C  0.22981557  0.93641940  0.71287667     0.04300
H468        H  0.23007491  0.90477387  0.67623858     0.18000
H469        H  0.22282946  0.94320743  0.68157290     0.18100
N470        N  0.24974711  0.91938754  0.78087491     0.01800
C471        C  0.24952978  0.90503787  0.79513139     0.04400
C472        C  0.25670544  0.91239711  0.81286872    -0.18500
C473        C  0.26145728  0.93195898  0.80960274    -0.18700
C474        C  0.25703649  0.93585944  0.78998046     0.04300
H475        H  0.25844192  0.90434425  0.82667987     0.18000
H476        H  0.26756544  0.94222881  0.82036582     0.18100
N477        N  0.26359591  0.00884566  0.77234923     0.01800
C478        C  0.27349726  0.02495065  0.77897596     0.04400
C479        C  0.28820344  0.01916623  0.79207929    -0.18500
C480        C  0.28705727  0.99868196  0.79350733    -0.18700
C481        C  0.27179504  0.99279822  0.78110225     0.04300
H482        H  0.29862463  0.02873247  0.79972570     0.18000
H483        H  0.29621628  0.98919765  0.80271239     0.18100
N484        N  0.21980567  0.00882943  0.73241758     0.01800
C485        C  0.21319160  0.99304439  0.72199996     0.04400
C486        C  0.19849068  0.99901652  0.70896379    -0.18500
C487        C  0.19606623  0.01927169  0.71172919    -0.18700
C488        C  0.20948881  0.02485242  0.72623823     0.04300
H489        H  0.19045817  0.98973945  0.69857172     0.18000
H490        H  0.18559266  0.02879092  0.70409597     0.18100
N491        N  0.21049220  0.09793272  0.74916750     0.01800
C492        C  0.19612189  0.11205274  0.75096950     0.04400
C493        C  0.17752371  0.10372129  0.74874313    -0.18500
C494        C  0.18039302  0.08381022  0.74534055    -0.18700
C495        C  0.20064539  0.08065987  0.74560559     0.04300
H496        H  0.16340472  0.11142055  0.74890098     0.18000
H497        H  0.16895909  0.07291139  0.74232182     0.18100
N498        N  0.26932756  0.09931456  0.76092110     0.01800
C499        C  0.28312950  0.11410944  0.76155027     0.04400
C500        C  0.30121342  0.10685471  0.76789641    -0.18500
C501        C  0.29866733  0.08692594  0.77128096    -0.18700
C502        C  0.27911076  0.08269427  0.76689507     0.04300
H503        H  0.31479758  0.11521293  0.76996241     0.18000
H504        H  0.30985850  0.07662312  0.77649601     0.18100
O505        O  0.22604594  0.77881542  0.70430093    -0.69200
O506        O  0.22528738  0.83564598  0.70409270    -0.69200
O507        O  0.22676021  0.80620501  0.67540486    -0.69300
O508        O  0.22462386  0.80745189  0.73231524    -0.69300
O509        O  0.25777642  0.80788134  0.73352117    -0.69200
O510        O  0.25989488  0.80666676  0.67655920    -0.69200
O511        O  0.25842489  0.83615628  0.70530636    -0.69200
O512        O  0.25920895  0.77923333  0.70550181    -0.69300
Ni513      Ni  0.22449849  0.80711843  0.70388910     1.25400
Ni514      Ni  0.26001879  0.80760938  0.70516719     1.25400
C515        C  0.24273719  0.76974809  0.70500058     0.93000
C516        C  0.24166898  0.84516742  0.70584614     0.92900
C517        C  0.24367357  0.80500019  0.66673765     0.93000
C518        C  0.24085550  0.80769600  0.74222481     0.93100
O519        O  0.25498023  0.71067852  0.77465625    -0.69200
O520        O  0.25177394  0.71106233  0.83134041    -0.69200
O521        O  0.25293385  0.68196534  0.80208912    -0.69300
O522        O  0.25371036  0.73898251  0.80299772    -0.69300
O523        O  0.22059494  0.73953342  0.80105989    -0.69200
O524        O  0.21983515  0.68254605  0.80028735    -0.69200
O525        O  0.21866525  0.71171766  0.82954184    -0.69200
O526        O  0.22185466  0.71115615  0.77268423    -0.69300
Ni527      Ni  0.25451518  0.71054721  0.80296327     1.25400
Ni528      Ni  0.21903178  0.71114206  0.80095110     1.25400
C529        C  0.23898416  0.71089541  0.76441160     0.93000
C530        C  0.23476152  0.71285169  0.83964809     0.92900
C531        C  0.23631247  0.67301821  0.79957868     0.93000
C532        C  0.23730079  0.74857266  0.80199912     0.93100
O533        O  0.25954901  0.73894445  0.70631667    -0.69200
O534        O  0.25973109  0.68213183  0.70708823    -0.69200
O535        O  0.26169125  0.71086393  0.67805950    -0.69300
O536        O  0.25762073  0.71078075  0.73472354    -0.69300
O537        O  0.22451116  0.71057408  0.73241408    -0.69200
O538        O  0.22859974  0.71072088  0.67568846    -0.69200
O539        O  0.22663487  0.68196199  0.70469910    -0.69200
O540        O  0.22643816  0.73873164  0.70402201    -0.69300
Ni541      Ni  0.26084906  0.71060123  0.70655596     1.25400
Ni542      Ni  0.22536623  0.71040839  0.70404093     1.25400
C543        C  0.24293432  0.74811209  0.70514155     0.93000
C544        C  0.24314679  0.67282165  0.70695932     0.92900
C545        C  0.24580459  0.71180118  0.66764223     0.93000
C546        C  0.24041499  0.71076184  0.74282184     0.93100
O547        O  0.25448459  0.77921723  0.80241644    -0.69200
O548        O  0.25592439  0.83605378  0.80157287    -0.69200
O549        O  0.25402016  0.80726036  0.83075224    -0.69300
O550        O  0.25625810  0.80740588  0.77386203    -0.69300
O551        O  0.22311439  0.80818366  0.77261156    -0.69200
O552        O  0.22089250  0.80819454  0.82954260    -0.69200
O553        O  0.22280611  0.83705229  0.80020525    -0.69200
O554        O  0.22134017  0.78000320  0.80121976    -0.69300
Ni555      Ni  0.25634241  0.80754558  0.80229141     1.25400
Ni556      Ni  0.22083886  0.80848054  0.80094752     1.25400
C557        C  0.23770395  0.77029751  0.80188351     0.93000
C558        C  0.23971176  0.84579775  0.79955677     0.92900
C559        C  0.23708325  0.80658403  0.83941070     0.93000
C560        C  0.24004040  0.80776179  0.76393149     0.93100
N561        N  0.24637555  0.59809001  0.72091125     0.01800
C562        C  0.24583620  0.61288140  0.70721266     0.04400
C563        C  0.24944935  0.60561646  0.68840467    -0.18500
C564        C  0.25239304  0.58556015  0.69042493    -0.18700
C565        C  0.25047658  0.58133346  0.71039696     0.04300
H566        H  0.25035403  0.61408022  0.67475875     0.18000
H567        H  0.25609333  0.57523528  0.67865846     0.18100
N568        N  0.23231502  0.59872332  0.77933316     0.01800
C569        C  0.23119565  0.61317154  0.79352479     0.04400
C570        C  0.22482324  0.60524583  0.81133242    -0.18500
C571        C  0.22186510  0.58532911  0.80820059    -0.18700
C572        C  0.22653166  0.58175236  0.78858355     0.04300
H573        H  0.22230141  0.61318862  0.82509091     0.18000
H574        H  0.21655964  0.57464685  0.81898968     0.18100
N575        N  0.22015461  0.50882044  0.76980946     0.01800
C576        C  0.21022134  0.49280199  0.77656482     0.04400
C577        C  0.19636068  0.49855646  0.79057226    -0.18500
C578        C  0.19806850  0.51895483  0.79243904    -0.18700
C579        C  0.21280075  0.52480455  0.77938777     0.04300
H580        H  0.18609716  0.48903527  0.79848995     0.18000
H581        H  0.18958602  0.52841424  0.80230251     0.18100
N582        N  0.26132571  0.50862192  0.72716052     0.01800
C583        C  0.26708677  0.52447274  0.71640809     0.04400
C584        C  0.28079156  0.51867049  0.70223836    -0.18500
C585        C  0.28350128  0.49840274  0.70468472    -0.18700
C586        C  0.27121214  0.49269400  0.72013433     0.04300
H587        H  0.28806982  0.52807665  0.69141033     0.18000
H588        H  0.29349827  0.48899158  0.69630504     0.18100
N589        N  0.27161228  0.42045510  0.74517175     0.01800
C590        C  0.28595460  0.40647264  0.74775395     0.04400
C591        C  0.30458231  0.41471506  0.74543866    -0.18500
C592        C  0.30173828  0.43446951  0.74118627    -0.18700
C593        C  0.28147370  0.43756987  0.74105374     0.04300
H594        H  0.31870096  0.40704259  0.74611216     0.18000
H595        H  0.31319581  0.44526519  0.73789456     0.18100
N596        N  0.21260155  0.41917167  0.75588003     0.01800
C597        C  0.19864698  0.40452860  0.75583243     0.04400
C598        C  0.18054149  0.41178050  0.76214858    -0.18500
C599        C  0.18324500  0.43157422  0.76617554    -0.18700
C600        C  0.20291155  0.43570075  0.76219633     0.04300
H601        H  0.16685660  0.40349792  0.76382146     0.18000
H602        H  0.17210403  0.44183295  0.77159220     0.18100
O603        O  0.29044255  0.27994926  0.73516824    -0.69200
O604        O  0.28979238  0.33690845  0.73488032    -0.69200
O605        O  0.31894578  0.30803867  0.73606153    -0.69300
O606        O  0.26197648  0.30814637  0.73397298    -0.69300
O607        O  0.26081311  0.30842612  0.76712459    -0.69200
O608        O  0.31780597  0.30825755  0.76919956    -0.69200
O609        O  0.28866027  0.33712884  0.76802707    -0.69200
O610        O  0.28925319  0.28027424  0.76832568    -0.69300
Ni611      Ni  0.29043117  0.30835547  0.73383093     1.25400
Ni612      Ni  0.28918381  0.30862368  0.76934973     1.25400
C613        C  0.28970402  0.27081375  0.75183574     0.93000
C614        C  0.28810631  0.34628032  0.75136639     0.92900
C615        C  0.32767105  0.30708623  0.75295514     0.93000
C616        C  0.25207612  0.30807306  0.75022447     0.93100
O617        O  0.19264339  0.23814808  0.73291236    -0.69200
O618        O  0.19286555  0.18118835  0.73500556    -0.69200
O619        O  0.16393916  0.21040237  0.73352498    -0.69300
O620        O  0.22091988  0.20976078  0.73442762    -0.69300
O621        O  0.22022444  0.21086777  0.76758220    -0.69200
O622        O  0.16339791  0.21144644  0.76667098    -0.69200
O623        O  0.19228325  0.18229559  0.76814300    -0.69200
O624        O  0.19200251  0.23916778  0.76607237    -0.69300
Ni625      Ni  0.19251640  0.20971002  0.73276758     1.25400
Ni626      Ni  0.19186838  0.21087555  0.76829039     1.25400
C627        C  0.19241027  0.24795412  0.74920697     0.93000
C628        C  0.19367864  0.17246162  0.75191104     0.92900
C629        C  0.15443211  0.21224591  0.74992511     0.93000
C630        C  0.22986959  0.21052785  0.75119680     0.93100
O631        O  0.22153836  0.30725605  0.73263247    -0.69200
O632        O  0.16447862  0.30667476  0.73090825    -0.69200
O633        O  0.19372620  0.33581110  0.73161994    -0.69300
O634        O  0.19307056  0.27874830  0.73200977    -0.69300
O635        O  0.19214703  0.27913914  0.76517307    -0.69200
O636        O  0.19258311  0.33590681  0.76476409    -0.69200
O637        O  0.16351827  0.30684366  0.76404625    -0.69200
O638        O  0.22049308  0.30757410  0.76578712    -0.69300
Ni639      Ni  0.19313503  0.30719830  0.73058390     1.25400
Ni640      Ni  0.19204750  0.30745743  0.76610307     1.25400
C641        C  0.23033743  0.30759049  0.74950220     0.93000
C642        C  0.15470700  0.30551192  0.74722225     0.92900
C643        C  0.19454669  0.34509172  0.74822964     0.93000
C644        C  0.19256858  0.26964314  0.74871696     0.93100
O645        O  0.26143907  0.21082977  0.73553263    -0.69200
O646        O  0.31842209  0.21166890  0.73770553    -0.69200
O647        O  0.28928555  0.18240523  0.73743006    -0.69300
O648        O  0.28984936  0.23941540  0.73583004    -0.69300
O649        O  0.28857329  0.24024233  0.76897616    -0.69200
O650        O  0.28805903  0.18343651  0.77055479    -0.69200
O651        O  0.31707513  0.21258362  0.77082756    -0.69200
O652        O  0.26025839  0.21176214  0.76867907    -0.69300
Ni653      Ni  0.28989604  0.21095379  0.73542769     1.25400
Ni654      Ni  0.28854187  0.21195002  0.77093423     1.25400
C655        C  0.25155340  0.21107428  0.75179051     0.93000
C656        C  0.32698652  0.21352447  0.75460753     0.92900
C657        C  0.28726214  0.17368663  0.75423840     0.93000
C658        C  0.28934597  0.24912637  0.75218721     0.93100
N659        N  0.71116962  0.25074802  0.91249458     0.01800
C660        C  0.69726638  0.25187799  0.89786987     0.04400
C661        C  0.67880137  0.24653577  0.90499198    -0.18500
C662        C  0.68123820  0.24196580  0.92470390    -0.18700
C663        C  0.70111015  0.24466230  0.92890462     0.04300
H664        H  0.66507172  0.24576710  0.89665575     0.18000
H665        H  0.66979070  0.23696825  0.93483780     0.18100
N666        N  0.77029197  0.26127852  0.91357973     0.01800
C667        C  0.78469279  0.25947187  0.89944834     0.04400
C668        C  0.80322954  0.26235072  0.90771313    -0.18500
C669        C  0.80030694  0.26615086  0.92754702    -0.18700
C670        C  0.78007632  0.26547284  0.93075707     0.04300
H671        H  0.81734709  0.26232181  0.90000406     0.18000
H672        H  0.81168593  0.26966200  0.93835112     0.18100
N673        N  0.71816318  0.23618807  0.00168885     0.01800
C674        C  0.71206067  0.22591421  0.01773318     0.04400
C675        C  0.69869857  0.21139741  0.01203801    -0.18500
C676        C  0.69660267  0.21307080  0.99162996    -0.18700
C677        C  0.70891068  0.22842252  0.98573804     0.04300
H678        H  0.69151792  0.20060485  0.02155849     0.18000
H679        H  0.68721979  0.20404807  0.98219036     0.18100
N680        N  0.75872403  0.27935363  0.00204650     0.01800
C681        C  0.76986889  0.28522905  0.98646004     0.04400
C682        C  0.78306204  0.29976530  0.99250791    -0.18500
C683        C  0.77965041  0.30282031  0.01259312    -0.18700
C684        C  0.76460745  0.28992741  0.01802782     0.04300
H685        H  0.79405021  0.30720752  0.98342106     0.18000
H686        H  0.78730990  0.31326662  0.02212076     0.18100
N687        N  0.73472856  0.22903447  0.09067608     0.01800
C688        C  0.73705042  0.21488237  0.10491976     0.04400
C689        C  0.73536834  0.19612380  0.09683147    -0.18500
C690        C  0.73175891  0.19864662  0.07693302    -0.18700
C691        C  0.73136376  0.21885531  0.07358258     0.04300
H692        H  0.73602131  0.18210942  0.10469253     0.18000
H693        H  0.72901753  0.18700293  0.06618288     0.18100
N694        N  0.74059683  0.28878160  0.09084579     0.01800
C695        C  0.73842826  0.30290668  0.10519265     0.04400
C696        C  0.74061744  0.32164745  0.09716919    -0.18500
C697        C  0.74436834  0.31913432  0.07726608    -0.18700
C698        C  0.74434536  0.29893614  0.07377747     0.04300
H699        H  0.74020125  0.33564437  0.10508258     0.18000
H700        H  0.74745469  0.33077396  0.06660728     0.18100
N701        N  0.40216781  0.29019373  0.74934173     0.01800
C702        C  0.38810270  0.30464927  0.75094100     0.04400
C703        C  0.39642062  0.32312532  0.74777832    -0.18500
C704        C  0.41624619  0.32007453  0.74399734    -0.18700
C705        C  0.41936562  0.29984044  0.74497381     0.04300
H706        H  0.38875598  0.33726292  0.74757777     0.18000
H707        H  0.42709238  0.33135310  0.74027878     0.18100
N708        N  0.40123883  0.23153688  0.76199886     0.01800
C709        C  0.38662453  0.21753505  0.76212562     0.04400
C710        C  0.39404498  0.19941762  0.76818314    -0.18500
C711        C  0.41388990  0.20216715  0.77192465    -0.18700
C712        C  0.41791721  0.22187561  0.76803744     0.04300
H713        H  0.38583383  0.18569625  0.76990989     0.18000
H714        H  0.42424799  0.19102715  0.77714011     0.18100
N715        N  0.49083812  0.27946571  0.73188594     0.01800
C716        C  0.50654737  0.28501229  0.72075688     0.04400
C717        C  0.50051407  0.29856068  0.70654665    -0.18500
C718        C  0.48029998  0.30136225  0.70931263    -0.18700
C719        C  0.47480164  0.28930218  0.72500594     0.04300
H720        H  0.50971838  0.30558028  0.69537970     0.18000
H721        H  0.47075743  0.31119130  0.70089326     0.18100
N722        N  0.49117534  0.23911557  0.77525210     0.01800
C723        C  0.47519333  0.22933777  0.78234857     0.04400
C724        C  0.48113179  0.21574201  0.79654665    -0.18500
C725        C  0.50157810  0.21748330  0.79814834    -0.18700
C726        C  0.50729481  0.23196405  0.78475066     0.04300
H727        H  0.47170819  0.20561375  0.80474982     0.18000
H728        H  0.51114455  0.20917929  0.80805121     0.18100
N729        N  0.58010775  0.26353971  0.72265868     0.01800
C730        C  0.59446793  0.26213471  0.70846073     0.04400
C731        C  0.58640924  0.26467398  0.68979001    -0.18500
C732        C  0.56643877  0.26786026  0.69241116    -0.18700
C733        C  0.56296777  0.26715233  0.71259723     0.04300
H734        H  0.59432123  0.26479772  0.67578485     0.18000
H735        H  0.55569073  0.27096980  0.68086366     0.18100
N736        N  0.58075969  0.25397740  0.78196078     0.01800
C737        C  0.59529840  0.25526102  0.79597867     0.04400
C738        C  0.58783922  0.25073029  0.81453005    -0.18500
C739        C  0.56805546  0.24649085  0.81203030    -0.18700
C740        C  0.56410136  0.24856234  0.79203292     0.04300
H741        H  0.59601945  0.25018193  0.82836376     0.18000
H742        H  0.55772286  0.24203114  0.82352312     0.18100
N743        N  0.90152220  0.25029414  0.72198415     0.01800
C744        C  0.88694106  0.25159141  0.70804898     0.04400
C745        C  0.89410316  0.24635312  0.68956839    -0.18500
C746        C  0.91379211  0.24167514  0.69203463    -0.18700
C747        C  0.91794739  0.24420230  0.71194046     0.04300
H748        H  0.88580616  0.24571388  0.67580870     0.18000
H749        H  0.92393631  0.23670750  0.68058244     0.18100
N750        N  0.90258916  0.26076350  0.78110095     0.01800
C751        C  0.88851616  0.25896542  0.79556382     0.04400
C752        C  0.89689142  0.26177573  0.81406332    -0.18500
C753        C  0.91672339  0.26553789  0.81104560    -0.18700
C754        C  0.91982800  0.26490651  0.79079604     0.04300
H755        H  0.88925139  0.26176814  0.82821841     0.18000
H756        H  0.92758358  0.26904100  0.82237300     0.18100
N757        N  0.99065879  0.23545157  0.72918600     0.01800
C758        C  0.00669292  0.22501858  0.72332193     0.04400
C759        C  0.00096911  0.21019616  0.71030966    -0.18500
C760        C  0.98055825  0.21184741  0.70818286    -0.18700
C761        C  0.97468527  0.22749757  0.72012380     0.04300
H762        H  0.01047839  0.19924916  0.70334862     0.18000
H763        H  0.97110893  0.20263411  0.69899670     0.18100
N764        N  0.99086958  0.27940204  0.76889047     0.01800
C765        C  0.97522710  0.28532159  0.77994429     0.04400
C766        C  0.98112383  0.30020636  0.79281144    -0.18500
C767        C  0.00116815  0.30342107  0.78930366    -0.18700
C768        C  0.00674245  0.29027720  0.77452777     0.04300
H769        H  0.97197447  0.30774921  0.80367992     0.18000
H770        H  0.01059159  0.31410325  0.79676397     0.18100
N771        N  0.07990053  0.22907829  0.74515300     0.01800
C772        C  0.09433000  0.21506963  0.74723758     0.04400
C773        C  0.08644548  0.19623241  0.74551472    -0.18500
C774        C  0.06648715  0.19854446  0.74212644    -0.18700
C775        C  0.06288932  0.21871368  0.74189833     0.04300
H776        H  0.09447270  0.18230543  0.74602440     0.18000
H777        H  0.05584641  0.18678965  0.73943896     0.18100
N778        N  0.07985561  0.28883440  0.75125074     0.01800
C779        C  0.09428978  0.30291062  0.74929616     0.04400
C780        C  0.08632784  0.32167144  0.75155027    -0.18500
C781        C  0.06638109  0.31922621  0.75511417    -0.18700
C782        C  0.06279258  0.29904546  0.75492124     0.04300
H783        H  0.09430081  0.33563671  0.75126687     0.18000
H784        H  0.05574635  0.33089901  0.75816488     0.18100
O785        O  0.72123162  0.24362726  0.80037237    -0.69200
O786        O  0.66437624  0.24422542  0.79974549    -0.69200
O787        O  0.69290771  0.24446459  0.77200208    -0.69300
O788        O  0.69332468  0.24339570  0.82875739    -0.69300
O789        O  0.69370657  0.27655361  0.82948306    -0.69200
O790        O  0.69322891  0.27764078  0.77245878    -0.69200
O791        O  0.66458807  0.27738094  0.80031528    -0.69200
O792        O  0.72170425  0.27679313  0.80097962    -0.69300
Ni793      Ni  0.69286120  0.24276914  0.80028416     1.25400
Ni794      Ni  0.69322973  0.27830624  0.80092359     1.25400
C795        C  0.73078781  0.26006008  0.80078524     0.93000
C796        C  0.65521549  0.26086822  0.79876471     0.92900
C797        C  0.69298303  0.26116853  0.76293312     0.93000
C798        C  0.69474705  0.25974487  0.83836282     0.93100
O799        O  0.78940005  0.24352741  0.73221535    -0.69200
O800        O  0.78872119  0.24413830  0.67534311    -0.69200
O801        O  0.81776328  0.24325453  0.70426725    -0.69300
O802        O  0.76100388  0.24440631  0.70391602    -0.69300
O803        O  0.76149999  0.27758084  0.70422940    -0.69200
O804        O  0.81854154  0.27640942  0.70466064    -0.69200
O805        O  0.78934581  0.27729055  0.67555648    -0.69200
O806        O  0.79004439  0.27669179  0.73268239    -0.69300
Ni807      Ni  0.78928514  0.24267417  0.70383735     1.25400
Ni808      Ni  0.78997376  0.27820748  0.70420685     1.25400
C809        C  0.78983062  0.25996192  0.74177040     0.93000
C810        C  0.78777253  0.26078133  0.66617611     0.92900
C811        C  0.82740220  0.25958499  0.70566983     0.93000
C812        C  0.75195227  0.26112000  0.70399384     0.93100
O813        O  0.69245330  0.27773379  0.73181082    -0.69200
O814        O  0.69296990  0.27684919  0.67478670    -0.69200
O815        O  0.66381509  0.27688255  0.70393408    -0.69300
O816        O  0.72083755  0.27771205  0.70344577    -0.69300
O817        O  0.72107979  0.24453420  0.70380963    -0.69200
O818        O  0.66421437  0.24372707  0.70431045    -0.69200
O819        O  0.69330231  0.24369386  0.67522801    -0.69200
O820        O  0.69279088  0.24455524  0.73208278    -0.69300
Ni821      Ni  0.69238977  0.27849910  0.70336328     1.25400
Ni822      Ni  0.69276223  0.24295922  0.70377272     1.25400
C823        C  0.69273650  0.26121696  0.74124501     0.93000
C824        C  0.69441252  0.26014485  0.66574121     0.92900
C825        C  0.65474961  0.26019397  0.70540740     0.93000
C826        C  0.73025898  0.26118786  0.70374779     0.93100
O827        O  0.76132589  0.24266990  0.80067886    -0.69200
O828        O  0.81828503  0.24061338  0.80015300    -0.69200
O829        O  0.78909434  0.24069020  0.82931391    -0.69300
O830        O  0.78968059  0.24260817  0.77234293    -0.69300
O831        O  0.79075878  0.27574848  0.77331245    -0.69200
O832        O  0.79020363  0.27380679  0.83033227    -0.69200
O833        O  0.81938834  0.27372929  0.80116835    -0.69200
O834        O  0.76235548  0.27581041  0.80170042    -0.69300
Ni835      Ni  0.78966033  0.24046473  0.80068893     1.25400
Ni836      Ni  0.79083351  0.27595493  0.80178296     1.25400
C837        C  0.75252332  0.25953369  0.80106914     0.93000
C838        C  0.82812159  0.25689380  0.79935068     0.92900
C839        C  0.78833390  0.25700181  0.83910450     0.93000
C840        C  0.79010521  0.25945582  0.76350910     0.93100
C841        C  0.08161764  0.24998114  0.74709475    -0.08000
C842        C  0.08162018  0.26795982  0.74910059    -0.09600
C843        C  0.02661630  0.28896205  0.76614928    -0.08000
C844        C  0.04351311  0.29098653  0.76020337    -0.09600
C845        C  0.02669346  0.22772310  0.73075562    -0.08000
C846        C  0.04365529  0.22652446  0.73653347    -0.09600
C847        C  0.99059952  0.25112285  0.74275709    -0.08000
C848        C  0.99074036  0.26431462  0.75468085    -0.09600
C849        C  0.86720641  0.25680712  0.79323514    -0.08000
C850        C  0.84932863  0.25635454  0.79561329    -0.09600
C851        C  0.95545366  0.27665124  0.77946343    -0.08000
C852        C  0.93877037  0.27038515  0.78211791    -0.09600
C853        C  0.86626064  0.25645036  0.71099046    -0.08000
C854        C  0.84854296  0.25879871  0.70907984    -0.09600
C855        C  0.93736976  0.23988314  0.71997544    -0.08000
C856        C  0.95448799  0.23473030  0.72178940    -0.09600
C857        C  0.90023706  0.25436551  0.74260389    -0.08000
C858        C  0.90049155  0.25760696  0.76039320    -0.09600
C859        C  0.63403652  0.26082133  0.79519577    -0.08000
C860        C  0.61622700  0.25920388  0.79311287    -0.09600
C861        C  0.63357747  0.25996202  0.70903890    -0.08000
C862        C  0.61570519  0.26033509  0.71120007    -0.09600
C863        C  0.58199365  0.26062760  0.74343047    -0.08000
C864        C  0.58219158  0.25764545  0.76127128    -0.09600
C865        C  0.52748289  0.23912782  0.78239635    -0.08000
C866        C  0.54465595  0.24424682  0.78396751    -0.09600
C867        C  0.52661474  0.27734722  0.72260574    -0.08000
C868        C  0.54365661  0.27185197  0.72080553    -0.09600
C869        C  0.49102715  0.26565415  0.74734324    -0.08000
C870        C  0.49111457  0.25354129  0.76036520    -0.09600
C871        C  0.43754719  0.23007842  0.77105499    -0.08000
C872        C  0.45489951  0.23169919  0.77550177    -0.09600
C873        C  0.45499518  0.28851320  0.73349366    -0.08000
C874        C  0.43828415  0.29109356  0.73965930    -0.09600
C875        C  0.40008016  0.26958288  0.75307295    -0.08000
C876        C  0.39980120  0.25192866  0.75696849    -0.09600
C877        C  0.73658890  0.24992393  0.09258895    -0.08000
C878        C  0.73852875  0.26790611  0.09265617    -0.09600
C879        C  0.75607584  0.28869708  0.03782572    -0.08000
C880        C  0.74991532  0.29080411  0.05462529    -0.09600
C881        C  0.72570346  0.22688898  0.05453457    -0.08000
C882        C  0.71969877  0.22834587  0.03767922    -0.09600
C883        C  0.73206003  0.25157340  0.00161070    -0.08000
C884        C  0.74423013  0.26453893  0.00178875    -0.09600
C885        C  0.78226781  0.25713599  0.87817858    -0.08000
C886        C  0.78460136  0.25654764  0.86030501    -0.09600
C887        C  0.77152254  0.27079970  0.94978760    -0.08000
C888        C  0.76909308  0.27686956  0.96657210    -0.09600
C889        C  0.70021089  0.25670490  0.87719428    -0.08000
C890        C  0.69823690  0.25900472  0.85948298    -0.09600
C891        C  0.70909856  0.24053826  0.94837030    -0.08000
C892        C  0.71079626  0.23552273  0.96553031    -0.09600
C893        C  0.73178424  0.25487431  0.91125868    -0.08000
C894        C  0.74957437  0.25812231  0.91154600    -0.09600
C895        C  0.36577443  0.21997893  0.75759185    -0.08000
C896        C  0.34807022  0.21748618  0.75550916    -0.09600
C897        C  0.11554385  0.30002428  0.74727764    -0.08000
C898        C  0.13346190  0.30202700  0.74674844    -0.09600
C899        C  0.11548837  0.21806656  0.74892938    -0.08000
C900        C  0.13332778  0.21595202  0.74953536    -0.09600
C901        C  0.36685183  0.30217820  0.75319442    -0.08000
C902        C  0.34893741  0.30402598  0.75361532    -0.09600
C903        C  0.20110825  0.38381588  0.75082252    -0.08000
C904        C  0.19856508  0.36615280  0.74858705    -0.09600
C905        C  0.28327607  0.38533990  0.75022429    -0.08000
C906        C  0.28499194  0.36747422  0.75111735    -0.09600
C907        C  0.25086032  0.41832692  0.74796281    -0.08000
C908        C  0.23308925  0.41786113  0.75123768    -0.09600
C909        C  0.27297490  0.45632675  0.73500618    -0.08000
C910        C  0.27047601  0.47290268  0.72853713    -0.09600
C911        C  0.21272410  0.47261311  0.76963190    -0.08000
C912        C  0.21108276  0.45529138  0.76520945    -0.09600
C913        C  0.23490917  0.50883021  0.75522353    -0.08000
C914        C  0.24728442  0.50868496  0.74243270    -0.09600
C915        C  0.22412945  0.56230628  0.77983538    -0.08000
C916        C  0.21987100  0.54501639  0.77750534    -0.09600
C917        C  0.25974317  0.54453750  0.71893716    -0.08000
C918        C  0.25452205  0.56169866  0.71797162    -0.09600
C919        C  0.24223581  0.59965987  0.74151465    -0.08000
C920        C  0.23792921  0.60022779  0.75908390    -0.09600
C921        C  0.24305943  0.65167967  0.70976406    -0.08000
C922        C  0.24362410  0.63380920  0.71085255    -0.09600
C923        C  0.23611499  0.65199202  0.79492298    -0.08000
C924        C  0.23488489  0.63429300  0.79166071    -0.09600
C925        C  0.28320965  0.15262206  0.75493731    -0.08000
C926        C  0.28062024  0.13493103  0.75697638    -0.09600
C927        C  0.19870667  0.13332810  0.75256449    -0.08000
C928        C  0.19683678  0.15123250  0.75264882    -0.09600
C929        C  0.23119956  0.10008798  0.75230550    -0.08000
C930        C  0.24891342  0.10056227  0.75591770    -0.09600
C931        C  0.21113167  0.04475258  0.73436120    -0.08000
C932        C  0.20909409  0.06160277  0.74033857    -0.09600
C933        C  0.27012120  0.04529861  0.77281678    -0.08000
C934        C  0.27122781  0.06284467  0.76907644    -0.09600
C935        C  0.24803414  0.00875680  0.75864063    -0.08000
C936        C  0.23489006  0.00872244  0.74664797    -0.09600
C937        C  0.24363204  0.88447662  0.79318309    -0.08000
C938        C  0.24077441  0.86688959  0.79571792    -0.09600
C939        C  0.26028835  0.95525879  0.78136466    -0.08000
C940        C  0.26485217  0.97251213  0.77922642    -0.09600
C941        C  0.23947415  0.88414988  0.71119627    -0.08000
C942        C  0.24110471  0.86634760  0.70919104    -0.09600
C943        C  0.22592164  0.95581929  0.72126845    -0.08000
C944        C  0.22080182  0.97293214  0.72340490    -0.09600
C945        C  0.23965791  0.91791680  0.74314406    -0.08000
C946        C  0.24407988  0.91784235  0.76066840    -0.09600
C947        C  0.23177330  0.75966733  0.09457284    -0.08000
C948        C  0.24896341  0.76519430  0.09466658    -0.09600
C949        C  0.26836315  0.78240724  0.05715727    -0.08000
C950        C  0.26530608  0.78677289  0.03998054    -0.09600
C951        C  0.21424621  0.73645414  0.04073713    -0.08000
C952        C  0.21170923  0.74157852  0.05773015    -0.09600
C953        C  0.23417780  0.75381015  0.00458158    -0.08000
C954        C  0.24474103  0.76814409  0.00445057    -0.09600
C955        C  0.23682765  0.80149651  0.87848287    -0.08000
C956        C  0.23632813  0.80332090  0.86059716    -0.09600
C957        C  0.25437010  0.79201602  0.96768721    -0.08000
C958        C  0.24916052  0.79290253  0.95049601    -0.09600
C959        C  0.23307639  0.71968966  0.87841580    -0.08000
C960        C  0.23381139  0.71705140  0.86064721    -0.09600
C961        C  0.22568642  0.72915509  0.95091622    -0.08000
C962        C  0.22166361  0.73035249  0.96835864    -0.09600
C963        C  0.23456780  0.75190113  0.91233641    -0.08000
C964        C  0.23740208  0.76977362  0.91245791    -0.09600
C965        C  0.24387648  0.79842672  0.62780181    -0.08000
C966        C  0.24437746  0.80099708  0.64562651    -0.09600
C967        C  0.24737007  0.71468664  0.64650925    -0.08000
C968        C  0.24953641  0.71625535  0.62875792    -0.09600
C969        C  0.24874829  0.74782726  0.59492450    -0.08000
C970        C  0.24455790  0.76540150  0.59478134    -0.09600
C971        C  0.22381153  0.78291990  0.54005318    -0.08000
C972        C  0.23009501  0.78598752  0.55663180    -0.09600
C973        C  0.26761248  0.72814675  0.53998594    -0.08000
C974        C  0.26289867  0.72613878  0.55720445    -0.09600
C975        C  0.25184780  0.74942448  0.50367201    -0.08000
C976        C  0.23848992  0.76117610  0.50366926    -0.09600
C977        C  0.21195990  0.76941883  0.45053212    -0.08000
C978        C  0.21338781  0.77304553  0.46811534    -0.09600
C979        C  0.27367402  0.73774732  0.44973025    -0.08000
C980        C  0.27285842  0.73392390  0.46726182    -0.09600
C981        C  0.25135621  0.75186866  0.41209957    -0.08000
C982        C  0.23392346  0.75673408  0.41217517    -0.09600
C983        C  0.28457171  0.76318346  0.14535696    -0.08000
C984        C  0.28175434  0.76619373  0.12782259    -0.09600
C985        C  0.19973644  0.75917023  0.36007986    -0.08000
C986        C  0.20228524  0.76013122  0.37789696    -0.09600
C987        C  0.19776654  0.76290815  0.14522742    -0.08000
C988        C  0.19957471  0.76020403  0.12759486    -0.09600
C989        C  0.28273190  0.75028729  0.37774914    -0.08000
C990        C  0.28494152  0.75243818  0.36003360    -0.09600
C991        C  0.36717260  0.75878982  0.21255757    -0.08000
C992        C  0.34934831  0.75792471  0.21007256    -0.09600
C993        C  0.36690183  0.74912572  0.29333024    -0.08000
C994        C  0.34926757  0.75172334  0.29566995    -0.09600
C995        C  0.40107387  0.75036754  0.26175139    -0.08000
C996        C  0.40122177  0.75540384  0.24437195    -0.09600
C997        C  0.45704678  0.77265854  0.22454911    -0.08000
C998        C  0.43959509  0.76859747  0.22281806    -0.09600
C999        C  0.45612267  0.73179336  0.28279431    -0.08000
C1000       C  0.43855797  0.73542142  0.28365480    -0.09600
C1001       C  0.49251016  0.74833901  0.26243357    -0.08000
C1002       C  0.49257231  0.76044697  0.24939488    -0.09600
C1003       C  0.54529700  0.78657184  0.24206882    -0.08000
C1004       C  0.52871250  0.78346238  0.23582042    -0.09600
C1005       C  0.54623408  0.72618136  0.27380974    -0.08000
C1006       C  0.52897312  0.72776003  0.27848360    -0.09600
C1007       C  0.58359878  0.76596856  0.25599110    -0.08000
C1008       C  0.58380595  0.74832864  0.25989970    -0.09600
C1009       C  0.61770685  0.71680703  0.25989460    -0.08000
C1010       C  0.63543567  0.71513980  0.25770071    -0.09600
C1011       C  0.63436900  0.80156012  0.25589360    -0.08000
C1012       C  0.61652316  0.79909139  0.25549546    -0.09600
C1013       C  0.11713626  0.76716020  0.29248424    -0.08000
C1014       C  0.13470014  0.76429689  0.29533356    -0.09600
C1015       C  0.11677319  0.76137725  0.21025617    -0.08000
C1016       C  0.13447972  0.76362804  0.20851809    -0.09600
C1017       C  0.08368081  0.76084163  0.24240084    -0.08000
C1018       C  0.08385683  0.76606423  0.25969088    -0.09600
C1019       C  0.02904972  0.78719838  0.27637238    -0.08000
C1020       C  0.04624551  0.78279714  0.27931314    -0.09600
C1021       C  0.02950036  0.73863613  0.22418009    -0.08000
C1022       C  0.04650255  0.74384811  0.22183190    -0.09600
C1023       C  0.99331548  0.75489568  0.24494669    -0.08000
C1024       C  0.99324647  0.76893234  0.25590077    -0.09600
C1025       C  0.84942149  0.80330938  0.24729260    -0.08000
C1026       C  0.86729814  0.80165172  0.24834269    -0.09600
C1027       C  0.93924354  0.79331406  0.26170099    -0.08000
C1028       C  0.95655783  0.79251254  0.26653569    -0.09600
C1029       C  0.86731685  0.72010487  0.24377100    -0.08000
C1030       C  0.84957307  0.71728890  0.24473060    -0.09600
C1031       C  0.93975612  0.73007899  0.23579277    -0.08000
C1032       C  0.95717668  0.73158537  0.23175221    -0.09600
C1033       C  0.90139281  0.77020678  0.24895998    -0.08000
C1034       C  0.90123586  0.75242019  0.24563765    -0.09600
C1035       C  0.78417753  0.65180752  0.24699253    -0.08000
C1036       C  0.78093805  0.63411739  0.24562348    -0.09600
C1037       C  0.69988933  0.63387810  0.25442078    -0.08000
C1038       C  0.69864433  0.65173766  0.25354541    -0.09600
C1039       C  0.74826249  0.60026237  0.24896720    -0.08000
C1040       C  0.73076770  0.59980300  0.25357244    -0.09600
C1041       C  0.76604854  0.54495305  0.23055283    -0.08000
C1042       C  0.76855217  0.56225718  0.23465688    -0.09600
C1043       C  0.70868936  0.54491161  0.27237622    -0.08000
C1044       C  0.70759650  0.56203185  0.26702423    -0.09600
C1045       C  0.74410783  0.50898020  0.24656989    -0.08000
C1046       C  0.73171271  0.50893950  0.25934033    -0.09600
C1047       C  0.75727296  0.47260491  0.22387405    -0.08000
C1048       C  0.75257394  0.45535539  0.22224258    -0.09600
C1049       C  0.71793698  0.47309592  0.28253249    -0.08000
C1050       C  0.72420575  0.45639075  0.28473039    -0.09600
C1051       C  0.73620184  0.41825280  0.26216405    -0.08000
C1052       C  0.73917447  0.41780162  0.24433792    -0.09600
C1053       C  0.74254143  0.09999033  0.24201704    -0.08000
C1054       C  0.74625636  0.10041521  0.25970871    -0.09600
C1055       C  0.75970398  0.06271441  0.28187373    -0.08000
C1056       C  0.76355264  0.04519762  0.28066369    -0.09600
C1057       C  0.73032335  0.06154537  0.22005567    -0.08000
C1058       C  0.72447555  0.04466088  0.22212690    -0.09600
C1059       C  0.73695540  0.00858805  0.24569380    -0.08000
C1060       C  0.74905118  0.00865184  0.25874680    -0.09600
C1061       C  0.78251937  0.88432050  0.25408203    -0.08000
C1062       C  0.78481955  0.86670003  0.25130791    -0.09600
C1063       C  0.77139376  0.95511186  0.27096650    -0.08000
C1064       C  0.76945801  0.97237114  0.27558263    -0.09600
C1065       C  0.70047103  0.88426211  0.25086617    -0.08000
C1066       C  0.69832447  0.86648168  0.25258271    -0.09600
C1067       C  0.71111801  0.95576589  0.23686837    -0.08000
C1068       C  0.71341424  0.97286406  0.23178167    -0.09600
C1069       C  0.73266464  0.91784835  0.25084139    -0.08000
C1070       C  0.75022298  0.91776600  0.25511583    -0.09600
C1071       C  0.74691971  0.13464862  0.29151875    -0.08000
C1072       C  0.74473829  0.15233608  0.29402341    -0.09600
C1073       C  0.73583151  0.30211597  0.14434039    -0.08000
C1074       C  0.73637933  0.30008558  0.12643587    -0.09600
C1075       C  0.73869408  0.38378200  0.21225025    -0.08000
C1076       C  0.73686541  0.36607052  0.20968358    -0.09600
C1077       C  0.73881612  0.21768945  0.12609679    -0.08000
C1078       C  0.73943695  0.21558937  0.14393510    -0.09600
C1079       C  0.74240814  0.13327996  0.20956985    -0.08000
C1080       C  0.74256854  0.15117473  0.20765307    -0.09600
C1081       C  0.73842347  0.38506310  0.29436100    -0.08000
C1082       C  0.73919277  0.36718081  0.29599420    -0.09600
C1083       C  0.74632182  0.21957115  0.37654895    -0.08000
C1084       C  0.74444795  0.21715329  0.35880182    -0.09600
C1085       C  0.74171640  0.30342821  0.35975752    -0.08000
C1086       C  0.74137534  0.30150229  0.37766596    -0.09600
C1087       C  0.74156180  0.26899430  0.41103985    -0.08000
C1088       C  0.74539054  0.25131957  0.41078346    -0.09600
C1089       C  0.76328140  0.23057088  0.46602283    -0.08000
C1090       C  0.75891968  0.22911072  0.44862051    -0.09600
C1091       C  0.72254977  0.28836428  0.46607644    -0.08000
C1092       C  0.72859869  0.29074226  0.44929401    -0.09600
C1093       C  0.73611516  0.26537463  0.50212509    -0.08000
C1094       C  0.74887127  0.25298467  0.50221550    -0.09600
C1095       C  0.78215115  0.25909335  0.62716102    -0.08000
C1096       C  0.78422817  0.26073547  0.64497827    -0.09600
C1097       C  0.77270199  0.24371432  0.55566929    -0.08000
C1098       C  0.77088363  0.23840683  0.53856410    -0.09600
C1099       C  0.70014224  0.26012383  0.62668610    -0.08000
C1100       C  0.69801120  0.25986349  0.64456401    -0.09600
C1101       C  0.70976206  0.27180132  0.55470000    -0.08000
C1102       C  0.71163979  0.27747579  0.53772608    -0.09600
C1103       C  0.73239418  0.26053841  0.59300846    -0.08000
C1104       C  0.75022921  0.25753798  0.59319180    -0.09600
loop_ 
_geom_bond_atom_site_label_1 
_geom_bond_atom_site_label_2 
_geom_bond_distance 
_geom_bond_site_symmetry_2 
_ccdc_geom_bond_type 
N1            C5   1.360       .  A
N1            C2   1.362       .  A
N1         C1103   1.417       .  S
C2            C3   1.380       .  A
C2         C1099   1.446       .  S
C3            C4   1.373       .  A
C3            H6   1.082       .  S
C4            C5   1.379       .  A
C4            H7   1.082       .  S
C5         C1101   1.447       .  S
N8           C12   1.360       .  A
N8            C9   1.363       .  A
N8         C1104   1.417       .  S
C9           C10   1.380       .  A
C9         C1095   1.447       .  S
C10          C11   1.373       .  A
C10          H13   1.082       .  S
C11          C12   1.379       .  A
C11          H14   1.082       .  S
C12        C1097   1.448       .  S
N15          C19   1.348       .  A
N15          C16   1.348       .  A
N15        C1093   1.395       .  S
C16          C17   1.383       .  A
C16        C1102   1.451       .  S
C17          C18   1.386       .  A
C17          H20   1.082       .  S
C18          C19   1.382       .  A
C18          H21   1.082       .  S
C19        C1091   1.451       .  S
N22          C26   1.349       .  A
N22          C23   1.349       .  A
N22        C1094   1.395       .  S
C23          C24   1.382       .  A
C23        C1089   1.452       .  S
C24          C25   1.386       .  A
C24          H27   1.082       .  S
C25          C26   1.382       .  A
C25          H28   1.082       .  S
C26        C1098   1.452       .  S
N29          C33   1.359       .  A
N29          C30   1.362       .  A
N29        C1087   1.417       .  S
C30          C31   1.380       .  A
C30        C1086   1.448       .  S
C31          C32   1.373       .  A
C31          H34   1.082       .  S
C32          C33   1.379       .  A
C32          H35   1.082       .  S
C33        C1092   1.447       .  S
N36          C40   1.360       .  A
N36          C37   1.363       .  A
N36        C1088   1.417       .  S
C37          C38   1.379       .  A
C37        C1083   1.447       .  S
C38          C39   1.372       .  A
C38          H41   1.082       .  S
C39          C40   1.379       .  A
C39          H42   1.082       .  S
C40        C1090   1.448       .  S
O43         Ni51   1.909       .  S
O43          C53   1.280       .  A
O44         Ni51   1.921       .  S
O44          C54   1.280       .  A
O45         Ni51   1.926       .  S
O45          C55   1.281       .  A
O46         Ni51   1.915       .  S
O46          C56   1.281       .  A
O47         Ni52   1.914       .  S
O47          C56   1.280       .  A
O48         Ni52   1.925       .  S
O48          C55   1.282       .  A
O49         Ni52   1.924       .  S
O49          C54   1.281       .  A
O50         Ni52   1.914       .  S
O50          C53   1.280       .  A
Ni51        Ni52   2.392       .  S
C53          C98   1.460       .  S
C54        C1082   1.442       .  S
C55        C1085   1.447       .  S
C56          C81   1.464       .  S
O57         Ni65   1.911       .  S
O57          C67   1.280       .  A
O58         Ni65   1.924       .  S
O58          C68   1.281       .  A
O59         Ni65   1.920       .  S
O59          C69   1.280       .  A
O60         Ni65   1.909       .  S
O60          C70   1.280       .  A
O61         Ni66   1.915       .  S
O61          C70   1.281       .  A
O62         Ni66   1.924       .  S
O62          C69   1.282       .  A
O63         Ni66   1.925       .  S
O63          C68   1.281       .  A
O64         Ni66   1.914       .  S
O64          C67   1.280       .  A
Ni65        Ni66   2.392       .  S
C67          C84   1.461       .  S
C68        C1080   1.445       .  S
C69        C1078   1.442       .  S
C70          C95   1.461       .  S
O71         Ni79   1.915       .  S
O71          C81   1.281       .  A
O72         Ni79   1.925       .  S
O72          C82   1.282       .  A
O73         Ni79   1.918       .  S
O73          C83   1.280       .  A
O74         Ni79   1.908       .  S
O74          C84   1.279       .  A
O75         Ni80   1.917       .  S
O75          C84   1.281       .  A
O76         Ni80   1.927       .  S
O76          C83   1.282       .  A
O77         Ni80   1.928       .  S
O77          C82   1.282       .  A
O78         Ni80   1.915       .  S
O78          C81   1.281       .  A
Ni79        Ni80   2.392       .  S
C82        C1073   1.448       .  S
C83        C1076   1.444       .  S
O85         Ni93   1.910       .  S
O85          C95   1.280       .  A
O86         Ni93   1.922       .  S
O86          C96   1.281       .  A
O87         Ni93   1.920       .  S
O87          C97   1.280       .  A
O88         Ni93   1.908       .  S
O88          C98   1.279       .  A
O89         Ni94   1.915       .  S
O89          C98   1.281       .  A
O90         Ni94   1.927       .  S
O90          C97   1.282       .  A
O91         Ni94   1.927       .  S
O91          C96   1.282       .  A
O92         Ni94   1.916       .  S
O92          C95   1.281       .  A
Ni93        Ni94   2.392       .  S
C96        C1084   1.446       .  S
C97        C1072   1.445       .  S
N99         C103   1.359       .  A
N99         C100   1.361       .  A
N99        C1069   1.416       .  S
C100        C101   1.380       .  A
C100       C1065   1.445       .  S
C101        C102   1.373       .  A
C101        H104   1.082       .  S
C102        C103   1.379       .  A
C102        H105   1.082       .  S
C103       C1067   1.446       .  S
N106        C110   1.358       .  A
N106        C107   1.361       .  A
N106       C1070   1.416       .  S
C107        C108   1.380       .  A
C107       C1061   1.444       .  S
C108        C109   1.372       .  A
C108        H111   1.082       .  S
C109        C110   1.379       .  A
C109        H112   1.082       .  S
C110       C1063   1.445       .  S
N113        C117   1.348       .  A
N113        C114   1.349   1_545  A
N113       C1059   1.396       .  S
C114        C115   1.382       .  A
C114       C1068   1.450       .  S
C115        C116   1.385   1_565  A
C115        H118   1.082       .  S
C116        C117   1.382       .  A
C116        H119   1.082       .  S
C117       C1058   1.450       .  S
N120        C124   1.348   1_545  A
N120        C121   1.348       .  A
N120       C1060   1.396       .  S
C121        C122   1.382       .  A
C121       C1056   1.449       .  S
C122        C123   1.384   1_545  A
C122        H125   1.082       .  S
C123        C124   1.382       .  A
C123        H126   1.082       .  S
C124       C1064   1.448       .  S
N127        C131   1.359       .  A
N127        C128   1.361       .  A
N127       C1053   1.417       .  S
C128        C129   1.380       .  A
C128       C1079   1.446       .  S
C129        C130   1.373       .  A
C129        H132   1.082       .  S
C130        C131   1.379       .  A
C130        H133   1.082       .  S
C131       C1057   1.446       .  S
N134        C138   1.359       .  A
N134        C135   1.362       .  A
N134       C1054   1.417       .  S
C135        C136   1.379       .  A
C135       C1071   1.445       .  S
C136        C137   1.372       .  A
C136        H139   1.082       .  S
C137        C138   1.379       .  A
C137        H140   1.082       .  S
C138       C1055   1.445       .  S
N141        C145   1.358       .  A
N141        C142   1.359       .  A
N141       C1051   1.417       .  S
C142        C143   1.380       .  A
C142       C1081   1.444       .  S
C143        C144   1.373       .  A
C143        H146   1.082       .  S
C144        C145   1.380       .  A
C144        H147   1.082       .  S
C145       C1050   1.445       .  S
N148        C152   1.358       .  A
N148        C149   1.362       .  A
N148       C1052   1.417       .  S
C149        C150   1.380       .  A
C149       C1075   1.444       .  S
C150        C151   1.372       .  A
C150        H153   1.082       .  S
C151        C152   1.379       .  A
C151        H154   1.082       .  S
C152       C1048   1.443       .  S
N155        C159   1.348       .  A
N155        C156   1.346       .  A
N155       C1046   1.396       .  S
C156        C157   1.383       .  A
C156       C1043   1.449       .  S
C157        C158   1.386       .  A
C157        H160   1.082       .  S
C158        C159   1.383       .  A
C158        H161   1.082       .  S
C159       C1049   1.449       .  S
N162        C166   1.348       .  A
N162        C163   1.348       .  A
N162       C1045   1.396       .  S
C163        C164   1.381       .  A
C163       C1047   1.446       .  S
C164        C165   1.383       .  A
C164        H167   1.082       .  S
C165        C166   1.382       .  A
C165        H168   1.082       .  S
C166       C1041   1.447       .  S
N169        C173   1.360       .  A
N169        C170   1.358       .  A
N169       C1040   1.418       .  S
C170        C171   1.379       .  A
C170       C1037   1.439       .  S
C171        C172   1.371       .  A
C171        H174   1.082       .  S
C172        C173   1.380       .  A
C172        H175   1.082       .  S
C173       C1044   1.443       .  S
N176        C180   1.358       .  A
N176        C177   1.365       .  A
N176       C1039   1.418       .  S
C177        C178   1.380       .  A
C177       C1036   1.448       .  S
C178        C179   1.372       .  A
C178        H181   1.082       .  S
C179        C180   1.378       .  A
C179        H182   1.082       .  S
C180       C1042   1.444       .  S
N183        C187   1.358       .  A
N183        C184   1.363       .  A
N183       C1034   1.418       .  S
C184        C185   1.379       .  A
C184       C1029   1.444       .  S
C185        C186   1.371       .  A
C185        H188   1.082       .  S
C186        C187   1.379       .  A
C186        H189   1.082       .  S
C187       C1031   1.442       .  S
N190        C194   1.361       .  A
N190        C191   1.361       .  A
N190       C1033   1.418       .  S
C191        C192   1.379       .  A
C191       C1026   1.444       .  S
C192        C193   1.372       .  A
C192        H195   1.082       .  S
C193        C194   1.380       .  A
C193        H196   1.082       .  S
C194       C1027   1.447       .  S
N197        C201   1.347       .  A
N197        C198   1.347   1_655  A
N197       C1023   1.397       .  S
C198        C199   1.382       .  A
C198       C1021   1.445       .  S
C199        C200   1.383   1_455  A
C199        H202   1.082       .  S
C200        C201   1.382       .  A
C200        H203   1.082       .  S
C201       C1032   1.445       .  S
N204        C208   1.350   1_655  A
N204        C205   1.349       .  A
N204       C1024   1.396       .  S
C205        C206   1.382       .  A
C205       C1028   1.451       .  S
C206        C207   1.385   1_655  A
C206        H209   1.082       .  S
C207        C208   1.382       .  A
C207        H210   1.082       .  S
C208       C1019   1.450       .  S
N211        C215   1.357       .  A
N211        C212   1.358       .  A
N211       C1017   1.416       .  S
C212        C213   1.380       .  A
C212       C1015   1.440       .  S
C213        C214   1.373       .  A
C213        H216   1.082       .  S
C214        C215   1.379       .  A
C214        H217   1.082       .  S
C215       C1022   1.441       .  S
N218        C222   1.359       .  A
N218        C219   1.363       .  A
N218       C1018   1.415       .  S
C219        C220   1.380       .  A
C219       C1013   1.448       .  S
C220        C221   1.374       .  A
C220        H223   1.082       .  S
C221        C222   1.379       .  A
C221        H224   1.082       .  S
C222       C1020   1.448       .  S
O225       Ni233   1.912       .  S
O225        C235   1.280       .  A
O226       Ni233   1.925       .  S
O226        C236   1.282       .  A
O227       Ni233   1.925       .  S
O227        C237   1.282       .  A
O228       Ni233   1.913       .  S
O228        C238   1.280       .  A
O229       Ni234   1.914       .  S
O229        C238   1.281       .  A
O230       Ni234   1.928       .  S
O230        C237   1.282       .  A
O231       Ni234   1.921       .  S
O231        C236   1.280       .  A
O232       Ni234   1.907       .  S
O232        C235   1.279       .  A
Ni233      Ni234   2.392       .  S
C235        C266   1.457       .  S
C236       C1030   1.444       .  S
C237       C1035   1.449       .  S
C238        C277   1.461       .  S
O239       Ni247   1.911       .  S
O239        C249   1.280       .  A
O240       Ni247   1.925       .  S
O240        C250   1.281       .  A
O241       Ni247   1.927       .  S
O241        C251   1.281       .  A
O242       Ni247   1.914       .  S
O242        C252   1.281       .  A
O243       Ni248   1.914       .  S
O243        C252   1.280       .  A
O244       Ni248   1.925       .  S
O244        C251   1.282       .  A
O245       Ni248   1.921       .  S
O245        C250   1.281       .  A
O246       Ni248   1.909       .  S
O246        C249   1.279       .  A
Ni247      Ni248   2.392       .  S
C249        C263   1.457       .  S
C250       C1066   1.444       .  S
C251       C1011   1.447       .  S
C252        C280   1.462       .  S
O253       Ni261   1.909       .  S
O253        C263   1.280       .  A
O254       Ni261   1.919       .  S
O254        C264   1.280       .  A
O255       Ni261   1.920       .  S
O255        C265   1.280       .  A
O256       Ni261   1.911       .  S
O256        C266   1.280       .  A
O257       Ni262   1.909       .  S
O257        C266   1.280       .  A
O258       Ni262   1.918       .  S
O258        C265   1.280       .  A
O259       Ni262   1.918       .  S
O259        C264   1.280       .  A
O260       Ni262   1.910       .  S
O260        C263   1.280       .  A
Ni261      Ni262   2.394       .  S
C264       C1038   1.437       .  S
C265       C1010   1.438       .  S
O267       Ni275   1.916       .  S
O267        C277   1.281       .  A
O268       Ni275   1.927       .  S
O268        C278   1.281       .  A
O269       Ni275   1.926       .  S
O269        C279   1.281       .  A
O270       Ni275   1.915       .  S
O270        C280   1.281       .  A
O271       Ni276   1.912       .  S
O271        C280   1.280       .  A
O272       Ni276   1.920       .  S
O272        C279   1.280       .  A
O273       Ni276   1.919       .  S
O273        C278   1.280       .  A
O274       Ni276   1.911       .  S
O274        C277   1.280       .  A
Ni275      Ni276   2.392       .  S
C278       C1062   1.443       .  S
C279       C1025   1.443       .  S
N281        C285   1.357       .  A
N281        C282   1.359       .  A
N281       C1008   1.416       .  S
C282        C283   1.379       .  A
C282       C1009   1.440       .  S
C283        C284   1.372       .  A
C283        H286   1.082       .  S
C284        C285   1.379       .  A
C284        H287   1.082       .  S
C285       C1005   1.442       .  S
N288        C292   1.359       .  A
N288        C289   1.362       .  A
N288       C1007   1.416       .  S
C289        C290   1.380       .  A
C289       C1012   1.448       .  S
C290        C291   1.374       .  A
C290        H293   1.082       .  S
C291        C292   1.379       .  A
C291        H294   1.082       .  S
C292       C1003   1.448       .  S
N295        C299   1.347       .  A
N295        C296   1.347       .  A
N295       C1001   1.396       .  S
C296        C297   1.382       .  A
C296       C1006   1.446       .  S
C297        C298   1.384       .  A
C297        H300   1.082       .  S
C298        C299   1.382       .  A
C298        H301   1.082       .  S
C299        C999   1.447       .  S
N302        C306   1.349       .  A
N302        C303   1.349       .  A
N302       C1002   1.396       .  S
C303        C304   1.382       .  A
C303        C997   1.452       .  S
C304        C305   1.385       .  A
C304        H307   1.082       .  S
C305        C306   1.382       .  A
C305        H308   1.082       .  S
C306       C1004   1.451       .  S
N309        C313   1.359       .  A
N309        C310   1.361       .  A
N309        C995   1.418       .  S
C310        C311   1.379       .  A
C310        C993   1.443       .  S
C311        C312   1.371       .  A
C311        H314   1.082       .  S
C312        C313   1.379       .  A
C312        H315   1.083       .  S
C313       C1000   1.443       .  S
N316        C320   1.360       .  A
N316        C317   1.363       .  A
N316        C996   1.418       .  S
C317        C318   1.379       .  A
C317        C991   1.447       .  S
C318        C319   1.372       .  A
C318        H321   1.082       .  S
C319        C320   1.379       .  A
C319        H322   1.082       .  S
C320        C998   1.448       .  S
O323       Ni331   1.913       .  S
O323        C333   1.280       .  A
O324       Ni331   1.925       .  S
O324        C334   1.281       .  A
O325       Ni331   1.925       .  S
O325        C335   1.281       .  A
O326       Ni331   1.913       .  S
O326        C336   1.280       .  A
O327       Ni332   1.911       .  S
O327        C336   1.280       .  A
O328       Ni332   1.920       .  S
O328        C335   1.280       .  A
O329       Ni332   1.921       .  S
O329        C334   1.281       .  A
O330       Ni332   1.911       .  S
O330        C333   1.280       .  A
Ni331      Ni332   2.393       .  S
C333        C375   1.460       .  S
C334        C990   1.443       .  S
C335        C994   1.443       .  S
C336        C361   1.460       .  S
O337       Ni345   1.910       .  S
O337        C347   1.280       .  A
O338       Ni345   1.915       .  S
O338        C348   1.279       .  A
O339       Ni345   1.914       .  S
O339        C349   1.279       .  A
O340       Ni345   1.909       .  S
O340        C350   1.279       .  A
O341       Ni346   1.915       .  S
O341        C350   1.281       .  A
O342       Ni346   1.924       .  S
O342        C349   1.281       .  A
O343       Ni346   1.924       .  S
O343        C348   1.281       .  A
O344       Ni346   1.914       .  S
O344        C347   1.281       .  A
Ni345      Ni346   2.394       .  S
C347        C378   1.461       .  S
C348       C1016   1.437       .  S
C349        C987   1.437       .  S
C350        C364   1.460       .  S
O351       Ni359   1.912       .  S
O351        C361   1.280       .  A
O352       Ni359   1.923       .  S
O352        C362   1.281       .  A
O353       Ni359   1.923       .  S
O353        C363   1.281       .  A
O354       Ni359   1.912       .  S
O354        C364   1.280       .  A
O355       Ni360   1.913       .  S
O355        C364   1.281       .  A
O356       Ni360   1.928       .  S
O356        C363   1.282       .  A
O357       Ni360   1.927       .  S
O357        C362   1.282       .  A
O358       Ni360   1.913       .  S
O358        C361   1.280       .  A
Ni359      Ni360   2.392       .  S
C362       C1014   1.448       .  S
C363        C985   1.448       .  S
O365       Ni373   1.914       .  S
O365        C375   1.281       .  A
O366       Ni373   1.928       .  S
O366        C376   1.282       .  A
O367       Ni373   1.927       .  S
O367        C377   1.282       .  A
O368       Ni373   1.913       .  S
O368        C378   1.281       .  A
O369       Ni374   1.912       .  S
O369        C378   1.280       .  A
O370       Ni374   1.923       .  S
O370        C377   1.281       .  A
O371       Ni374   1.922       .  S
O371        C376   1.281       .  A
O372       Ni374   1.911       .  S
O372        C375   1.280       .  A
Ni373      Ni374   2.392       .  S
C376        C983   1.446       .  S
C377        C992   1.447       .  S
N379        C383   1.359       .  A
N379        C380   1.362       .  A
N379        C981   1.418       .  S
C380        C381   1.379       .  A
C380        C989   1.443       .  S
C381        C382   1.371       .  A
C381        H384   1.082       .  S
C382        C383   1.379       .  A
C382        H385   1.082       .  S
C383        C979   1.443       .  S
N386        C390   1.361       .  A
N386        C387   1.364       .  A
N386        C982   1.418       .  S
C387        C388   1.379       .  A
C387        C986   1.448       .  S
C388        C389   1.372       .  A
C388        H391   1.082       .  S
C389        C390   1.379       .  A
C389        H392   1.082       .  S
C390        C977   1.448       .  S
N393        C397   1.347       .  A
N393        C394   1.348       .  A
N393        C975   1.396       .  S
C394        C395   1.382       .  A
C394        C973   1.448       .  S
C395        C396   1.384       .  A
C395        H398   1.082       .  S
C396        C397   1.382       .  A
C396        H399   1.082       .  S
C397        C980   1.448       .  S
N400        C404   1.349       .  A
N400        C401   1.349       .  A
N400        C976   1.395       .  S
C401        C402   1.383       .  A
C401        C978   1.452       .  S
C402        C403   1.385       .  A
C402        H405   1.082       .  S
C403        C404   1.382       .  A
C403        H406   1.082       .  S
C404        C971   1.451       .  S
N407        C411   1.357       .  A
N407        C408   1.359       .  A
N407        C969   1.416       .  S
C408        C409   1.380       .  A
C408        C968   1.441       .  S
C409        C410   1.373       .  A
C409        H412   1.082       .  S
C410        C411   1.380       .  A
C410        H413   1.082       .  S
C411        C974   1.444       .  S
N414        C418   1.359       .  A
N414        C415   1.362       .  A
N414        C970   1.416       .  S
C415        C416   1.380       .  A
C415        C965   1.448       .  S
C416        C417   1.373       .  A
C416        H419   1.082       .  S
C417        C418   1.379       .  A
C417        H420   1.082       .  S
C418        C972   1.448       .  S
N421        C425   1.358       .  A
N421        C422   1.362       .  A
N421        C963   1.418       .  S
C422        C423   1.379       .  A
C422        C959   1.442       .  S
C423        C424   1.371       .  A
C423        H426   1.082       .  S
C424        C425   1.379       .  A
C424        H427   1.082       .  S
C425        C961   1.441       .  S
N428        C432   1.360       .  A
N428        C429   1.361       .  A
N428        C964   1.418       .  S
C429        C430   1.379       .  A
C429        C955   1.444       .  S
C430        C431   1.372       .  A
C430        H433   1.082       .  S
C431        C432   1.379       .  A
C431        H434   1.082       .  S
C432        C958   1.446       .  S
N435        C439   1.347   1_554  A
N435        C436   1.347       .  A
N435        C953   1.397       .  S
C436        C437   1.382       .  A
C436        C951   1.444       .  S
C437        C438   1.383   1_554  A
C437        H440   1.082       .  S
C438        C439   1.382       .  A
C438        H441   1.082       .  S
C439        C962   1.445       .  S
N442        C446   1.349       .  A
N442        C443   1.348   1_554  A
N442        C954   1.397       .  S
C443        C444   1.382       .  A
C443        C957   1.450       .  S
C444        C445   1.385   1_556  A
C444        H447   1.082       .  S
C445        C446   1.382       .  A
C445        H448   1.082       .  S
C446        C950   1.450       .  S
N449        C453   1.356       .  A
N449        C450   1.357       .  A
N449        C947   1.415       .  S
C450        C451   1.380       .  A
C450        C988   1.439       .  S
C451        C452   1.373       .  A
C451        H454   1.082       .  S
C452        C453   1.379       .  A
C452        H455   1.082       .  S
C453        C952   1.440       .  S
N456        C460   1.358       .  A
N456        C457   1.362       .  A
N456        C948   1.415       .  S
C457        C458   1.380       .  A
C457        C984   1.448       .  S
C458        C459   1.374       .  A
C458        H461   1.082       .  S
C459        C460   1.379       .  A
C459        H462   1.082       .  S
C460        C949   1.447       .  S
N463        C467   1.359       .  A
N463        C464   1.361       .  A
N463        C945   1.416       .  S
C464        C465   1.379       .  A
C464        C941   1.445       .  S
C465        C466   1.373       .  A
C465        H468   1.082       .  S
C466        C467   1.379       .  A
C466        H469   1.082       .  S
C467        C943   1.446       .  S
N470        C474   1.358       .  A
N470        C471   1.362       .  A
N470        C946   1.416       .  S
C471        C472   1.380       .  A
C471        C937   1.446       .  S
C472        C473   1.373       .  A
C472        H475   1.082       .  S
C473        C474   1.379       .  A
C473        H476   1.082       .  S
C474        C939   1.445       .  S
N477        C481   1.348   1_545  A
N477        C478   1.348       .  A
N477        C935   1.396       .  S
C478        C479   1.382       .  A
C478        C933   1.449       .  S
C479        C480   1.384   1_545  A
C479        H482   1.082       .  S
C480        C481   1.382       .  A
C480        H483   1.082       .  S
C481        C940   1.449       .  S
N484        C488   1.348       .  A
N484        C485   1.349   1_545  A
N484        C936   1.396       .  S
C485        C486   1.382       .  A
C485        C944   1.450       .  S
C486        C487   1.385   1_565  A
C486        H489   1.082       .  S
C487        C488   1.383       .  A
C487        H490   1.082       .  S
C488        C931   1.451       .  S
N491        C495   1.359       .  A
N491        C492   1.361       .  A
N491        C929   1.417       .  S
C492        C493   1.380       .  A
C492        C927   1.446       .  S
C493        C494   1.373       .  A
C493        H496   1.082       .  S
C494        C495   1.380       .  A
C494        H497   1.082       .  S
C495        C932   1.447       .  S
N498        C502   1.359       .  A
N498        C499   1.362       .  A
N498        C930   1.417       .  S
C499        C500   1.379       .  A
C499        C926   1.445       .  S
C500        C501   1.371       .  A
C500        H503   1.082       .  S
C501        C502   1.379       .  A
C501        H504   1.082       .  S
C502        C934   1.445       .  S
O505       Ni513   1.908       .  S
O505        C515   1.279       .  A
O506       Ni513   1.921       .  S
O506        C516   1.281       .  A
O507       Ni513   1.924       .  S
O507        C517   1.281       .  A
O508       Ni513   1.913       .  S
O508        C518   1.280       .  A
O509       Ni514   1.914       .  S
O509        C518   1.281       .  A
O510       Ni514   1.926       .  S
O510        C517   1.281       .  A
O511       Ni514   1.924       .  S
O511        C516   1.281       .  A
O512       Ni514   1.911       .  S
O512        C515   1.280       .  A
Ni513      Ni514   2.392       .  S
C515        C543   1.456       .  S
C516        C942   1.444       .  S
C517        C966   1.447       .  S
C518        C560   1.462       .  S
O519       Ni527   1.905       .  S
O519        C529   1.279       .  A
O520       Ni527   1.919       .  S
O520        C530   1.280       .  A
O521       Ni527   1.927       .  S
O521        C531   1.282       .  A
O522       Ni527   1.915       .  S
O522        C532   1.281       .  A
O523       Ni528   1.914       .  S
O523        C532   1.280       .  A
O524       Ni528   1.926       .  S
O524        C531   1.282       .  A
O525       Ni528   1.925       .  S
O525        C530   1.282       .  A
O526       Ni528   1.912       .  S
O526        C529   1.280       .  A
Ni527      Ni528   2.392       .  S
C529        C546   1.456       .  S
C530        C960   1.443       .  S
C531        C923   1.449       .  S
C532        C557   1.462       .  S
O533       Ni541   1.910       .  S
O533        C543   1.280       .  A
O534       Ni541   1.918       .  S
O534        C544   1.280       .  A
O535       Ni541   1.919       .  S
O535        C545   1.280       .  A
O536       Ni541   1.908       .  S
O536        C546   1.280       .  A
O537       Ni542   1.910       .  S
O537        C546   1.280       .  A
O538       Ni542   1.921       .  S
O538        C545   1.280       .  A
O539       Ni542   1.917       .  S
O539        C544   1.279       .  A
O540       Ni542   1.908       .  S
O540        C543   1.279       .  A
Ni541      Ni542   2.394       .  S
C544        C921   1.435       .  S
C545        C967   1.439       .  S
O547       Ni555   1.911       .  S
O547        C557   1.280       .  A
O548       Ni555   1.919       .  S
O548        C558   1.280       .  A
O549       Ni555   1.922       .  S
O549        C559   1.281       .  A
O550       Ni555   1.913       .  S
O550        C560   1.280       .  A
O551       Ni556   1.913       .  S
O551        C560   1.280       .  A
O552       Ni556   1.925       .  S
O552        C559   1.281       .  A
O553       Ni556   1.928       .  S
O553        C558   1.282       .  A
O554       Ni556   1.917       .  S
O554        C557   1.281       .  A
Ni555      Ni556   2.392       .  S
C558        C938   1.445       .  S
C559        C956   1.444       .  S
N561        C565   1.360       .  A
N561        C562   1.357       .  A
N561        C919   1.418       .  S
C562        C563   1.378       .  A
C562        C922   1.437       .  S
C563        C564   1.371       .  A
C563        H566   1.082       .  S
C564        C565   1.380       .  A
C564        H567   1.082       .  S
C565        C918   1.442       .  S
N568        C572   1.358       .  A
N568        C569   1.365       .  A
N568        C920   1.418       .  S
C569        C570   1.380       .  A
C569        C924   1.449       .  S
C570        C571   1.371       .  A
C570        H573   1.083       .  S
C571        C572   1.378       .  A
C571        H574   1.082       .  S
C572        C915   1.444       .  S
N575        C579   1.348       .  A
N575        C576   1.348       .  A
N575        C913   1.396       .  S
C576        C577   1.381       .  A
C576        C911   1.446       .  S
C577        C578   1.383       .  A
C577        H580   1.082       .  S
C578        C579   1.382       .  A
C578        H581   1.082       .  S
C579        C916   1.447       .  S
N582        C586   1.347       .  A
N582        C583   1.346       .  A
N582        C914   1.396       .  S
C583        C584   1.383       .  A
C583        C917   1.448       .  S
C584        C585   1.386       .  A
C584        H587   1.082       .  S
C585        C586   1.383       .  A
C585        H588   1.082       .  S
C586        C910   1.448       .  S
N589        C593   1.358       .  A
N589        C590   1.359       .  A
N589        C907   1.416       .  S
C590        C591   1.380       .  A
C590        C905   1.443       .  S
C591        C592   1.373       .  A
C591        H594   1.082       .  S
C592        C593   1.380       .  A
C592        H595   1.082       .  S
C593        C909   1.445       .  S
N596        C600   1.358       .  A
N596        C597   1.361       .  A
N596        C908   1.416       .  S
C597        C598   1.380       .  A
C597        C903   1.444       .  S
C598        C599   1.372       .  A
C598        H601   1.082       .  S
C599        C600   1.379       .  A
C599        H602   1.082       .  S
C600        C912   1.443       .  S
O603       Ni611   1.914       .  S
O603        C613   1.280       .  A
O604       Ni611   1.923       .  S
O604        C614   1.281       .  A
O605       Ni611   1.925       .  S
O605        C615   1.282       .  A
O606       Ni611   1.915       .  S
O606        C616   1.281       .  A
O607       Ni612   1.915       .  S
O607        C616   1.281       .  A
O608       Ni612   1.927       .  S
O608        C615   1.281       .  A
O609       Ni612   1.921       .  S
O609        C614   1.280       .  A
O610       Ni612   1.909       .  S
O610        C613   1.280       .  A
Ni611      Ni612   2.392       .  S
C613        C658   1.460       .  S
C614        C906   1.442       .  S
C615        C902   1.447       .  S
C616        C641   1.464       .  S
O617       Ni625   1.914       .  S
O617        C627   1.280       .  A
O618       Ni625   1.926       .  S
O618        C628   1.282       .  A
O619       Ni625   1.925       .  S
O619        C629   1.282       .  A
O620       Ni625   1.915       .  S
O620        C630   1.281       .  A
O621       Ni626   1.909       .  S
O621        C630   1.280       .  A
O622       Ni626   1.920       .  S
O622        C629   1.280       .  A
O623       Ni626   1.924       .  S
O623        C628   1.281       .  A
O624       Ni626   1.910       .  S
O624        C627   1.280       .  A
Ni625      Ni626   2.392       .  S
C627        C644   1.460       .  S
C628        C928   1.445       .  S
C629        C900   1.442       .  S
C630        C655   1.460       .  S
O631       Ni639   1.917       .  S
O631        C641   1.281       .  A
O632       Ni639   1.929       .  S
O632        C642   1.282       .  A
O633       Ni639   1.927       .  S
O633        C643   1.282       .  A
O634       Ni639   1.917       .  S
O634        C644   1.281       .  A
O635       Ni640   1.907       .  S
O635        C644   1.279       .  A
O636       Ni640   1.917       .  S
O636        C643   1.280       .  A
O637       Ni640   1.926       .  S
O637        C642   1.282       .  A
O638       Ni640   1.915       .  S
O638        C641   1.281       .  A
Ni639      Ni640   2.392       .  S
C642        C898   1.449       .  S
C643        C904   1.443       .  S
O645       Ni653   1.915       .  S
O645        C655   1.280       .  A
O646       Ni653   1.927       .  S
O646        C656   1.282       .  A
O647       Ni653   1.927       .  S
O647        C657   1.282       .  A
O648       Ni653   1.916       .  S
O648        C658   1.281       .  A
O649       Ni654   1.909       .  S
O649        C658   1.279       .  A
O650       Ni654   1.919       .  S
O650        C657   1.280       .  A
O651       Ni654   1.921       .  S
O651        C656   1.281       .  A
O652       Ni654   1.910       .  S
O652        C655   1.280       .  A
Ni653      Ni654   2.392       .  S
C656        C896   1.445       .  S
C657        C925   1.444       .  S
N659        C663   1.358       .  A
N659        C660   1.361       .  A
N659        C893   1.417       .  S
C660        C661   1.380       .  A
C660        C889   1.443       .  S
C661        C662   1.372       .  A
C661        H664   1.082       .  S
C662        C663   1.379       .  A
C662        H665   1.082       .  S
C663        C891   1.443       .  S
N666        C670   1.360       .  A
N666        C667   1.363       .  A
N666        C894   1.417       .  S
C667        C668   1.380       .  A
C667        C885   1.449       .  S
C668        C669   1.373       .  A
C668        H671   1.082       .  S
C669        C670   1.379       .  A
C669        H672   1.082       .  S
C670        C887   1.449       .  S
N673        C677   1.347   1_554  A
N673        C674   1.346       .  A
N673        C883   1.395       .  S
C674        C675   1.382       .  A
C674        C882   1.447       .  S
C675        C676   1.385   1_554  A
C675        H678   1.082       .  S
C676        C677   1.382       .  A
C676        H679   1.082       .  S
C677        C892   1.447       .  S
N680        C684   1.349       .  A
N680        C681   1.349   1_554  A
N680        C884   1.395       .  S
C681        C682   1.383       .  A
C681        C888   1.453       .  S
C682        C683   1.386   1_556  A
C682        H685   1.082       .  S
C683        C684   1.383       .  A
C683        H686   1.082       .  S
C684        C879   1.453       .  S
N687        C691   1.358       .  A
N687        C688   1.360       .  A
N687        C877   1.417       .  S
C688        C689   1.379       .  A
C688       C1077   1.443       .  S
C689        C690   1.372       .  A
C689        H692   1.082       .  S
C690        C691   1.379       .  A
C690        H693   1.082       .  S
C691        C881   1.443       .  S
N694        C698   1.360       .  A
N694        C695   1.363       .  A
N694        C878   1.417       .  S
C695        C696   1.380       .  A
C695       C1074   1.449       .  S
C696        C697   1.373       .  A
C696        H699   1.082       .  S
C697        C698   1.380       .  A
C697        H700   1.082       .  S
C698        C880   1.450       .  S
N701        C705   1.359       .  A
N701        C702   1.362       .  A
N701        C875   1.417       .  S
C702        C703   1.380       .  A
C702        C901   1.448       .  S
C703        C704   1.374       .  A
C703        H706   1.082       .  S
C704        C705   1.379       .  A
C704        H707   1.082       .  S
C705        C874   1.448       .  S
N708        C712   1.360       .  A
N708        C709   1.362       .  A
N708        C876   1.417       .  S
C709        C710   1.379       .  A
C709        C895   1.446       .  S
C710        C711   1.372       .  A
C710        H713   1.082       .  S
C711        C712   1.379       .  A
C711        H714   1.082       .  S
C712        C871   1.446       .  S
N715        C719   1.348       .  A
N715        C716   1.348       .  A
N715        C869   1.395       .  S
C716        C717   1.383       .  A
C716        C867   1.451       .  S
C717        C718   1.386       .  A
C717        H720   1.082       .  S
C718        C719   1.382       .  A
C718        H721   1.082       .  S
C719        C873   1.451       .  S
N722        C726   1.348       .  A
N722        C723   1.348       .  A
N722        C870   1.395       .  S
C723        C724   1.382       .  A
C723        C872   1.450       .  S
C724        C725   1.385       .  A
C724        H727   1.082       .  S
C725        C726   1.382       .  A
C725        H728   1.082       .  S
C726        C865   1.450       .  S
N729        C733   1.360       .  A
N729        C730   1.362       .  A
N729        C863   1.417       .  S
C730        C731   1.379       .  A
C730        C862   1.446       .  S
C731        C732   1.372       .  A
C731        H734   1.082       .  S
C732        C733   1.379       .  A
C732        H735   1.082       .  S
C733        C868   1.447       .  S
N736        C740   1.360       .  A
N736        C737   1.362       .  A
N736        C864   1.417       .  S
C737        C738   1.380       .  A
C737        C860   1.446       .  S
C738        C739   1.372       .  A
C738        H741   1.082       .  S
C739        C740   1.379       .  A
C739        H742   1.082       .  S
C740        C866   1.447       .  S
N743        C747   1.359       .  A
N743        C744   1.361       .  A
N743        C857   1.417       .  S
C744        C745   1.380       .  A
C744        C853   1.443       .  S
C745        C746   1.372       .  A
C745        H748   1.082       .  S
C746        C747   1.379       .  A
C746        H749   1.082       .  S
C747        C855   1.444       .  S
N750        C754   1.360       .  A
N750        C751   1.363       .  A
N750        C858   1.417       .  S
C751        C752   1.380       .  A
C751        C849   1.450       .  S
C752        C753   1.374       .  A
C752        H755   1.082       .  S
C753        C754   1.379       .  A
C753        H756   1.082       .  S
C754        C852   1.450       .  S
N757        C761   1.347       .  A
N757        C758   1.346   1_655  A
N757        C847   1.395       .  S
C758        C759   1.382       .  A
C758        C845   1.448       .  S
C759        C760   1.386   1_455  A
C759        H762   1.082       .  S
C760        C761   1.382       .  A
C760        H763   1.082       .  S
C761        C856   1.448       .  S
N764        C768   1.350   1_655  A
N764        C765   1.349       .  A
N764        C848   1.395       .  S
C765        C766   1.382       .  A
C765        C851   1.454       .  S
C766        C767   1.386   1_655  A
C766        H769   1.082       .  S
C767        C768   1.383       .  A
C767        H770   1.082       .  S
C768        C843   1.454       .  S
N771        C775   1.359       .  A
N771        C772   1.361       .  A
N771        C841   1.418       .  S
C772        C773   1.379       .  A
C772        C899   1.443       .  S
C773        C774   1.371       .  A
C773        H776   1.082       .  S
C774        C775   1.379       .  A
C774        H777   1.082       .  S
C775        C846   1.443       .  S
N778        C782   1.361       .  A
N778        C779   1.363       .  A
N778        C842   1.417       .  S
C779        C780   1.380       .  A
C779        C897   1.450       .  S
C780        C781   1.374       .  A
C780        H783   1.082       .  S
C781        C782   1.380       .  A
C781        H784   1.082       .  S
C782        C844   1.451       .  S
O785       Ni793   1.910       .  S
O785        C795   1.280       .  A
O786       Ni793   1.920       .  S
O786        C796   1.280       .  A
O787       Ni793   1.907       .  S
O787        C797   1.279       .  A
O788       Ni793   1.917       .  S
O788        C798   1.280       .  A
O789       Ni794   1.926       .  S
O789        C798   1.281       .  A
O790       Ni794   1.916       .  S
O790        C797   1.281       .  A
O791       Ni794   1.929       .  S
O791        C796   1.282       .  A
O792       Ni794   1.919       .  S
O792        C795   1.281       .  A
Ni793      Ni794   2.392       .  S
C795        C837   1.463       .  S
C796        C859   1.446       .  S
C797        C823   1.460       .  S
C798        C890   1.442       .  S
O799       Ni807   1.911       .  S
O799        C809   1.280       .  A
O800       Ni807   1.921       .  S
O800        C810   1.280       .  A
O801       Ni807   1.917       .  S
O801        C811   1.280       .  A
O802       Ni807   1.907       .  S
O802        C812   1.279       .  A
O803       Ni808   1.917       .  S
O803        C812   1.281       .  A
O804       Ni808   1.927       .  S
O804        C811   1.282       .  A
O805       Ni808   1.930       .  S
O805        C810   1.282       .  A
O806       Ni808   1.919       .  S
O806        C809   1.281       .  A
Ni807      Ni808   2.392       .  S
C809        C840   1.464       .  S
C810       C1096   1.447       .  S
C811        C854   1.442       .  S
C812        C826   1.460       .  S
O813       Ni821   1.915       .  S
O813        C823   1.280       .  A
O814       Ni821   1.927       .  S
O814        C824   1.282       .  A
O815       Ni821   1.927       .  S
O815        C825   1.282       .  A
O816       Ni821   1.915       .  S
O816        C826   1.280       .  A
O817       Ni822   1.909       .  S
O817        C826   1.280       .  A
O818       Ni822   1.922       .  S
O818        C825   1.280       .  A
O819       Ni822   1.922       .  S
O819        C824   1.280       .  A
O820       Ni822   1.908       .  S
O820        C823   1.280       .  A
Ni821      Ni822   2.392       .  S
C824       C1100   1.446       .  S
C825        C861   1.446       .  S
O827       Ni835   1.913       .  S
O827        C837   1.281       .  A
O828       Ni835   1.927       .  S
O828        C838   1.281       .  A
O829       Ni835   1.927       .  S
O829        C839   1.281       .  A
O830       Ni835   1.913       .  S
O830        C840   1.281       .  A
O831       Ni836   1.916       .  S
O831        C840   1.280       .  A
O832       Ni836   1.927       .  S
O832        C839   1.282       .  A
O833       Ni836   1.928       .  S
O833        C838   1.282       .  A
O834       Ni836   1.917       .  S
O834        C837   1.281       .  A
Ni835      Ni836   2.391       .  S
C838        C850   1.450       .  S
C839        C886   1.449       .  S
C841        C842   1.218       .  T
C843        C844   1.213       .  T
C845        C846   1.209       .  T
C847        C848   1.197       .  T
C849        C850   1.214       .  T
C851        C852   1.213       .  T
C853        C854   1.210       .  T
C855        C856   1.209       .  T
C857        C858   1.217       .  T
C859        C860   1.212       .  T
C861        C862   1.212       .  T
C863        C864   1.217       .  T
C865        C866   1.211       .  T
C867        C868   1.211       .  T
C869        C870   1.197       .  T
C871        C872   1.211       .  T
C873        C874   1.211       .  T
C875        C876   1.217       .  T
C877        C878   1.217       .  T
C879        C880   1.212       .  T
C881        C882   1.208       .  T
C883        C884   1.197       .  T
C885        C886   1.214       .  T
C887        C888   1.212       .  T
C889        C890   1.209       .  T
C891        C892   1.209       .  T
C893        C894   1.217       .  T
C895        C896   1.212       .  T
C897        C898   1.214       .  T
C899        C900   1.210       .  T
C901        C902   1.212       .  T
C903        C904   1.210       .  T
C905        C906   1.209       .  T
C907        C908   1.217       .  T
C909        C910   1.209       .  T
C911        C912   1.208       .  T
C913        C914   1.198       .  T
C915        C916   1.209       .  T
C917        C918   1.209       .  T
C919        C920   1.218       .  T
C921        C922   1.206       .  T
C923        C924   1.214       .  T
C925        C926   1.211       .  T
C927        C928   1.212       .  T
C929        C930   1.217       .  T
C931        C932   1.211       .  T
C933        C934   1.210       .  T
C935        C936   1.198       .  T
C937        C938   1.211       .  T
C939        C940   1.210       .  T
C941        C942   1.211       .  T
C943        C944   1.211       .  T
C945        C946   1.217       .  T
C947        C948   1.215       .  T
C949        C950   1.211       .  T
C951        C952   1.207       .  T
C953        C954   1.198       .  T
C955        C956   1.211       .  T
C957        C958   1.211       .  T
C959        C960   1.210       .  T
C961        C962   1.207       .  T
C963        C964   1.218       .  T
C965        C966   1.213       .  T
C967        C968   1.208       .  T
C969        C970   1.216       .  T
C971        C972   1.211       .  T
C973        C974   1.209       .  T
C975        C976   1.197       .  T
C977        C978   1.212       .  T
C979        C980   1.209       .  T
C981        C982   1.218       .  T
C983        C984   1.212       .  T
C985        C986   1.213       .  T
C987        C988   1.207       .  T
C989        C990   1.210       .  T
C991        C992   1.213       .  T
C993        C994   1.210       .  T
C995        C996   1.218       .  T
C997        C998   1.212       .  T
C999       C1000   1.208       .  T
C1001      C1002   1.198       .  T
C1003      C1004   1.211       .  T
C1005      C1006   1.208       .  T
C1007      C1008   1.216       .  T
C1009      C1010   1.207       .  T
C1011      C1012   1.213       .  T
C1013      C1014   1.213       .  T
C1015      C1016   1.207       .  T
C1017      C1018   1.216       .  T
C1019      C1020   1.211       .  T
C1021      C1022   1.207       .  T
C1023      C1024   1.198       .  T
C1025      C1026   1.210       .  T
C1027      C1028   1.211       .  T
C1029      C1030   1.211       .  T
C1031      C1032   1.208       .  T
C1033      C1034   1.218       .  T
C1035      C1036   1.214       .  T
C1037      C1038   1.206       .  T
C1039      C1040   1.218       .  T
C1041      C1042   1.209       .  T
C1043      C1044   1.209       .  T
C1045      C1046   1.198       .  T
C1047      C1048   1.208       .  T
C1049      C1050   1.210       .  T
C1051      C1052   1.217       .  T
C1053      C1054   1.217       .  T
C1055      C1056   1.210       .  T
C1057      C1058   1.211       .  T
C1059      C1060   1.198       .  T
C1061      C1062   1.210       .  T
C1063      C1064   1.209       .  T
C1065      C1066   1.211       .  T
C1067      C1068   1.211       .  T
C1069      C1070   1.216       .  T
C1071      C1072   1.211       .  T
C1073      C1074   1.213       .  T
C1075      C1076   1.211       .  T
C1077      C1078   1.210       .  T
C1079      C1080   1.211       .  T
C1081      C1082   1.210       .  T
C1083      C1084   1.212       .  T
C1085      C1086   1.212       .  T
C1087      C1088   1.217       .  T
C1089      C1090   1.212       .  T
C1091      C1092   1.211       .  T
C1093      C1094   1.197       .  T
C1095      C1096   1.212       .  T
C1097      C1098   1.212       .  T
C1099      C1100   1.212       .  T
C1101      C1102   1.211       .  T
C1103      C1104   1.217       .  T
