geometry optimzed in LAMMPS
_audit_creation_date              2020-12-01 
_audit_creation_method            'lammps2cif' 
_symmetry_space_group_name_H-M    'P1' 
_symmetry_Int_Tables_number       1 
_symmetry_cell_setting            triclinic 
loop_ 
_symmetry_equiv_pos_as_xyz 
  x,y,z 
_cell_length_a                    44.83252679 
_cell_length_b                    44.84192804861948 
_cell_length_c                    14.116599409827689 
_cell_angle_alpha                 89.99049873823283 
_cell_angle_beta                  90.00617624388711 
_cell_angle_gamma                 120.09029866414093 
loop_ 
_atom_site_label 
_atom_site_type_symbol 
_atom_site_fract_x 
_atom_site_fract_y 
_atom_site_fract_z 
_atom_site_charge 
C1          C  0.33334536  0.16681212  0.19342009     0.32500
C2          C  0.33334642  0.16681140  0.99660679     0.32500
C3          C  0.35199608  0.14982328  0.14463024    -0.03700
C4          C  0.29765552  0.14812323  0.14461248    -0.04400
C5          C  0.35037839  0.20249145  0.14460085    -0.04300
C6          C  0.35189226  0.14996743  0.04504263    -0.03700
C7          C  0.29790431  0.14822551  0.04502469    -0.04400
C8          C  0.35023719  0.20224314  0.04501476    -0.04300
C9          C  0.36909031  0.13350748  0.01521659    -0.29700
N10         N  0.37961520  0.12340397  0.09265583     0.16800
C11         C  0.36942248  0.13305082  0.17207432    -0.29700
H12         H  0.37404341  0.12797029  0.24396047     0.18700
C13         C  0.26419690  0.13105787  0.01518340    -0.28700
N14         N  0.24354008  0.12055425  0.09261523     0.15500
C15         C  0.26340785  0.13073074  0.17204293    -0.28700
C16         C  0.36663401  0.23593978  0.01516410    -0.29000
N17         N  0.37669367  0.25658886  0.09259195     0.16000
H18         H  0.37121432  0.24485439  0.94248342     0.18600
C19         C  0.36708227  0.23672787  0.17202459    -0.29000
H20         H  0.37210576  0.24644177  0.24390516     0.18600
H21         H  0.25369290  0.12614352  0.24392294     0.18600
H22         H  0.37336248  0.12887872  0.94254210     0.18700
H23         H  0.25528221  0.12681453  0.94250615     0.18600
C24         C  0.33335805  0.16682810  0.49660723     0.32500
C25         C  0.33335575  0.16682553  0.69342054     0.32500
C26         C  0.35020780  0.14828811  0.54504074    -0.03700
C27         C  0.35194363  0.20226251  0.54501943    -0.04400
C28         C  0.29791846  0.14993601  0.54502310    -0.04300
C29         C  0.35035056  0.14818196  0.64462792    -0.03700
C30         C  0.35204473  0.20250909  0.64460771    -0.04400
C31         C  0.29766905  0.14979251  0.64460928    -0.04300
C32         C  0.36710160  0.13073461  0.67206948    -0.29700
N33         N  0.37673755  0.12053213  0.59264991     0.16800
C34         C  0.36664800  0.13107106  0.51521129    -0.29700
H35         H  0.37126351  0.12678603  0.44253547     0.18700
C36         C  0.36942360  0.23674908  0.67203369    -0.28700
N37         N  0.37959371  0.25661492  0.59260420     0.15500
C38         C  0.36909918  0.23596412  0.51517350    -0.28700
C39         C  0.26342473  0.13307328  0.67203851    -0.29000
N40         N  0.24356034  0.12345544  0.59260944     0.16000
H41         H  0.25370790  0.12803897  0.74392037     0.18600
C42         C  0.26421501  0.13352588  0.51517864    -0.29000
H43         H  0.25529959  0.12893894  0.44249980     0.18600
H44         H  0.37333539  0.24487855  0.44249486     0.18600
H45         H  0.37216605  0.12609678  0.74395511     0.18700
H46         H  0.37400164  0.24646003  0.74391237     0.18600
C47         C  0.16633331  0.33371286  0.00339357     0.32500
C48         C  0.16633440  0.33371210  0.80658029     0.32500
C49         C  0.14778752  0.35055685  0.95495741    -0.03700
C50         C  0.20177542  0.35229878  0.95497573    -0.04400
C51         C  0.14944257  0.29828115  0.95498539    -0.04300
C52         C  0.14768372  0.35070101  0.85536984    -0.03700
C53         C  0.20202427  0.35240103  0.85538779    -0.04400
C54         C  0.14930128  0.29803280  0.85539953    -0.04300
C55         C  0.13025729  0.36747352  0.82792556    -0.29700
N56         N  0.12006457  0.37712036  0.90734415     0.16800
C57         C  0.13058955  0.36701684  0.98478312    -0.29700
H58         H  0.12631737  0.37164547  0.05745754     0.18700
C59         C  0.23627202  0.36979363  0.82795640    -0.28700
N60         N  0.25613967  0.37996997  0.90738482     0.15500
C61         C  0.23548280  0.36946635  0.98481689    -0.28700
C62         C  0.13259753  0.26379643  0.82797593    -0.29000
N63         N  0.12298610  0.24393542  0.90740810     0.16000
H64         H  0.12757404  0.25408258  0.75609550     0.18600
C65         C  0.13304582  0.26458461  0.98483532    -0.29000
H66         H  0.12846560  0.25567014  0.05751569     0.18600
H67         H  0.24439742  0.37370966  0.05749421     0.18600
H68         H  0.12563635  0.37255403  0.75603925     0.18700
H69         H  0.24598692  0.37438071  0.75607584     0.18600
C70         C  0.16632390  0.33369870  0.30657986     0.32500
C71         C  0.16632174  0.33369626  0.50339312     0.32500
C72         C  0.14932909  0.35234222  0.35537266    -0.03700
C73         C  0.14763496  0.29801515  0.35539292    -0.04400
C74         C  0.20201066  0.35073178  0.35539061    -0.04300
C75         C  0.14947202  0.35223621  0.45495928    -0.03700
C76         C  0.14773608  0.29826191  0.45498097    -0.04400
C77         C  0.20176133  0.35058826  0.45497689    -0.04300
C78         C  0.13303193  0.36945320  0.48478734    -0.29700
N79         N  0.12294213  0.37999216  0.40735029     0.16800
C80         C  0.13257814  0.36978962  0.32793168    -0.29700
H81         H  0.12751373  0.37442735  0.25604633     0.18700
C82         C  0.13058080  0.26456050  0.48482551    -0.28700
N83         N  0.12008595  0.24390935  0.40739608     0.15500
C84         C  0.13025588  0.26377501  0.32796630    -0.28700
C85         C  0.23546489  0.36699847  0.48482196    -0.29000
N86         N  0.25611943  0.37706885  0.40739028     0.16000
H87         H  0.24438030  0.37158538  0.55750140     0.18600
C88         C  0.23625494  0.36745098  0.32796117    -0.29000
H89         H  0.24597168  0.37248526  0.25607923     0.18600
H90         H  0.12567790  0.25406402  0.25608722     0.19600
H91         H  0.12841642  0.37373799  0.55746244     0.18700
H92         H  0.12634461  0.25564628  0.55750343     0.18600
O93         O  0.04329434  0.48486292  0.05909631    -0.85800
C94         C  0.05530339  0.05345506  0.86298942     0.90200
Mg95       Mg  0.00537375  0.43137631  0.06220775     1.58100
O96         O  0.01534557  0.05916699  0.05912412    -0.85500
O97         O  0.05998769  0.02876766  0.15414403    -0.72900
C98         C  0.35940210  0.42753207  0.94552598     0.95300
O99         O  0.02824374  0.46865850  0.84578060    -0.72700
O100        O  0.37412433  0.40979403  0.93458463    -0.80200
Mg101      Mg  0.07433237  0.00591019  0.93773065     1.58000
C102        C  0.42725982  0.06791545  0.05458090     0.95200
O103        O  0.12462052  0.04246043  0.02067028    -0.78500
H104        H  0.01796994  0.07347536  0.19073801    -0.03800
C105        C  0.44666888  0.50248165  0.86303363     0.90100
O106        O  0.46815486  0.44015219  0.15419218    -0.73000
O107        O  0.05877632  0.04376604  0.94086883    -0.85700
O108        O  0.45779564  0.08285011  0.02074827    -0.78500
C109        C  0.06766793  0.14066464  0.94547887     0.95300
C110        C  0.14027766  0.07299221  0.05447396     0.95200
Mg111      Mg  0.42534752  0.49461417  0.06226940     1.58000
O112        O  0.37505930  0.45806391  0.97932957    -0.78500
O113        O  0.47143612  0.03186589  0.15421957    -0.72700
O114        O  0.08259517  0.12508608  0.97924182    -0.78500
O115        O  0.09017897  0.46511082  0.93442782    -0.80300
O116        O  0.41708459  0.37543820  0.02075780    -0.78600
C117        C  0.50218166  0.05567010  0.13702232     0.89600
O118        O  0.44090342  0.45675824  0.05913116    -0.85700
O119        O  0.45638561  0.01566137  0.94090374    -0.85800
O120        O  0.43969210  0.47175669  0.84585607    -0.72900
Mg121      Mg  0.06883453  0.07481177  0.06218724     1.58000
O122        O  0.03516101  0.12585809  0.93453535    -0.80200
H123        H  0.05504582  0.48228890  0.19068492    -0.04000
O124        O  0.48433430  0.44135746  0.94087570    -0.85500
H125        H  0.48170952  0.42704860  0.80926048    -0.03800
H126        H  0.42657113  0.44501178  0.19072178    -0.04000
C127        C  0.99749799  0.44485400  0.86297676     0.89600
C128        C  0.05301100  0.99804274  0.13696631     0.90200
C129        C  0.44437627  0.44706921  0.13701072     0.90200
H130        H  0.44463405  0.01823563  0.80931431    -0.04000
O131        O  0.03152484  0.06037206  0.84580772    -0.73000
Mg132      Mg  0.43084525  0.42571259  0.93781274     1.58000
H133        H  0.07310852  0.05551253  0.80927852    -0.04000
C134        C  0.07241995  0.43260880  0.94541897     0.95200
O135        O  0.46451873  0.37466620  0.06546431    -0.80200
C136        C  0.43201183  0.35985963  0.05452061     0.95300
O137        O  0.12555537  0.09073022  0.06541515    -0.80200
Mg138      Mg  0.49430616  0.06914796  0.93779225     1.58200
O139        O  0.04188413  0.41767415  0.97925161    -0.78500
O140        O  0.40950080  0.03541339  0.06557175    -0.80200
O141        O  0.48442690  0.04370135  0.44090871    -0.85800
C142        C  0.05303809  0.05570893  0.63700506     0.90200
Mg143      Mg  0.43092893  0.00578699  0.43779970     1.58100
O144        O  0.05876801  0.01577465  0.44086973    -0.85500
O145        O  0.02834598  0.06039586  0.34586286    -0.72900
C146        C  0.42711425  0.35985545  0.55446212     0.95300
O147        O  0.46821673  0.02864386  0.65422968    -0.72700
O148        O  0.40936581  0.37456732  0.56540859    -0.80200
Mg149      Mg  0.00547612  0.07472587  0.56227998     1.58000
C150        C  0.06751725  0.42770528  0.44541145     0.95200
O151        O  0.04202749  0.12500699  0.47934578    -0.78500
H152        H  0.07308584  0.01840464  0.30925267    -0.03800
C153        C  0.50206779  0.44710852  0.63696382     0.90100
O154        O  0.43971326  0.46858194  0.34581137    -0.73000
O155        O  0.04334223  0.05917662  0.55913006    -0.85700
O156        O  0.08245963  0.45823386  0.47924604    -0.78500
C157        C  0.14027260  0.06809298  0.55452543     0.95300
C158        C  0.07256556  0.14066881  0.44553779     0.95200
Mg159      Mg  0.49420359  0.42579844  0.43771980     1.58000
O160        O  0.45765232  0.37551730  0.52065403    -0.78500
O161        O  0.03146299  0.47188046  0.34577043    -0.72700
O162        O  0.12468373  0.08301091  0.52076886    -0.78500
O163        O  0.46467039  0.09056690  0.56558993    -0.80300
O164        O  0.37499604  0.41751334  0.47923121    -0.78600
C165        C  0.05527388  0.50261786  0.36296884     0.89600
O166        O  0.45633747  0.44134773  0.44086986    -0.85700
O167        O  0.01525284  0.45682285  0.55909115    -0.85800
O168        O  0.47133383  0.44012842  0.65413716    -0.72900
Mg169      Mg  0.07440205  0.06924869  0.43781614     1.58000
O170        O  0.12547270  0.03559190  0.56545309    -0.80200
H171        H  0.48185413  0.05544456  0.30931076    -0.04000
O172        O  0.44091166  0.48474959  0.55913026    -0.85500
H173        H  0.42659436  0.48212007  0.69074588    -0.03800
H174        H  0.44458623  0.42701464  0.30929030    -0.04000
C175        C  0.44440609  0.99790662  0.63703045     0.89600
C176        C  0.99761197  0.05341580  0.36303588     0.90200
C177        C  0.44664163  0.44481536  0.36299465     0.90200
H178        H  0.01782563  0.44507976  0.69068903    -0.04000
O179        O  0.05996653  0.03194246  0.65418876    -0.73000
Mg180      Mg  0.42527772  0.43127559  0.56218409     1.58000
H181        H  0.05509347  0.07350957  0.69070924    -0.04000
C182        C  0.43216251  0.07281902  0.55458842     0.95200
O183        O  0.37420706  0.46493231  0.43454693    -0.80200
C184        C  0.35940715  0.43243125  0.44547470     0.95300
O185        O  0.09031404  0.12595698  0.43459146    -0.80200
Mg186      Mg  0.06875078  0.49473725  0.56220033     1.58200
O187        O  0.41722015  0.04229045  0.52075387    -0.78500
O188        O  0.03500938  0.40995741  0.43440946    -0.80200
C189        C  0.08815199  0.17678259  0.42250455    -0.10700
C190        C  0.10255951  0.20768720  0.41132709    -0.12300
C191        C  0.29235343  0.39556120  0.41131795    -0.10700
C192        C  0.32327297  0.41192593  0.42248699    -0.12300
C193        C  0.10439832  0.39763107  0.41126658    -0.10700
C194        C  0.08800628  0.41211297  0.42242453    -0.12300
C195        C  0.10451578  0.20770864  0.91133976    -0.10700
C196        C  0.08816657  0.17679423  0.92250378    -0.12300
C197        C  0.29236961  0.39751644  0.91131363    -0.10700
C198        C  0.32328090  0.41193855  0.92249191    -0.12300
C199        C  0.08800329  0.41211355  0.92242029    -0.10700
C200        C  0.10246025  0.39569810  0.91125927    -0.12300
C201        C  0.16632742  0.33369784  0.61121268    -0.10700
C202        C  0.16633357  0.33370539  0.69877442    -0.12300
C203        C  0.16633352  0.33370772  0.11121278    -0.10700
C204        C  0.16632957  0.33370153  0.19877432    -0.12300
C205        C  0.39528143  0.10289330  0.58873396    -0.10700
C206        C  0.41167340  0.08841134  0.57757525    -0.12300
C207        C  0.41152776  0.32374162  0.57749540    -0.10700
C208        C  0.39712023  0.29283704  0.58867382    -0.12300
C209        C  0.20732637  0.10496309  0.58868126    -0.10700
C210        C  0.17640679  0.08859834  0.57751299    -0.12300
C211        C  0.41167644  0.08841075  0.07757934    -0.10700
C212        C  0.39721946  0.10482618  0.08874072    -0.12300
C213        C  0.39516403  0.29281566  0.08866015    -0.10700
C214        C  0.41151315  0.32373009  0.07749595    -0.12300
C215        C  0.20731015  0.10300788  0.08868679    -0.10700
C216        C  0.17639888  0.08858570  0.07750795    -0.12300
C217        C  0.33334625  0.16681656  0.88878760    -0.10700
C218        C  0.33334999  0.16682267  0.80122607    -0.12300
C219        C  0.33335248  0.16682650  0.38878772    -0.10700
C220        C  0.33334622  0.16681896  0.30122600    -0.12300
C221        C  0.33334536  0.66681215  0.19341993     0.32500
C222        C  0.33334641  0.66681141  0.99660670     0.32500
C223        C  0.35199604  0.64982325  0.14463013    -0.03700
C224        C  0.29765554  0.64812334  0.14461232    -0.04400
C225        C  0.35037840  0.70249147  0.14460073    -0.04300
C226        C  0.35189220  0.64996740  0.04504259    -0.03700
C227        C  0.29790432  0.64822551  0.04502468    -0.04400
C228        C  0.35023721  0.70224314  0.04501471    -0.04300
C229        C  0.36909021  0.63350742  0.01521676    -0.29700
N230        N  0.37961516  0.62340391  0.09265583     0.16800
C231        C  0.36942245  0.63305078  0.17207425    -0.29700
H232        H  0.37404335  0.62797025  0.24396044     0.18700
C233        C  0.26419692  0.63105784  0.01518359    -0.28700
N234        N  0.24354005  0.62055429  0.09261521     0.15500
C235        C  0.26340791  0.63073072  0.17204261    -0.28700
C236        C  0.36663400  0.73593973  0.01516429    -0.29000
N237        N  0.37669367  0.75658886  0.09259195     0.16000
H238        H  0.37121426  0.74485430  0.94248371     0.18600
C239        C  0.36708227  0.73672788  0.17202457    -0.29000
H240        H  0.37210572  0.74644172  0.24390524     0.18600
H241        H  0.25369308  0.62614372  0.24392258     0.18600
H242        H  0.37336243  0.62887876  0.94254232     0.18700
H243        H  0.25528230  0.62681465  0.94250640     0.18600
C244        C  0.33335805  0.66682812  0.49660707     0.32500
C245        C  0.33335573  0.66682553  0.69342034     0.32500
C246        C  0.35020778  0.64828810  0.54504069    -0.03700
C247        C  0.35194360  0.70226249  0.54501938    -0.04400
C248        C  0.29791848  0.64993607  0.54502301    -0.04300
C249        C  0.35035064  0.64818206  0.64462777    -0.03700
C250        C  0.35204470  0.70250908  0.64460752    -0.04400
C251        C  0.29766902  0.64979249  0.64460905    -0.04300
C252        C  0.36710155  0.63073461  0.67206927    -0.29700
N253        N  0.37673760  0.62053219  0.59264983     0.16800
C254        C  0.36664793  0.63107104  0.51521138    -0.29700
H255        H  0.37126354  0.62678619  0.44253561     0.18700
C256        C  0.36942361  0.73674909  0.67203350    -0.28700
N257        N  0.37959374  0.75661498  0.59260426     0.15500
C258        C  0.36909914  0.73596409  0.51517395    -0.28700
C259        C  0.26342471  0.63307322  0.67203833    -0.29000
N260        N  0.24356031  0.62345538  0.59260943     0.16000
H261        H  0.25370795  0.62803894  0.74392023     0.18600
C262        C  0.26421508  0.63352590  0.51517896    -0.29000
H263        H  0.25529979  0.62893903  0.44250024     0.18600
H264        H  0.37333536  0.74487851  0.44249556     0.18600
H265        H  0.37216606  0.62609689  0.74395490     0.18700
H266        H  0.37400162  0.74646001  0.74391216     0.18600
C267        C  0.16633327  0.83371285  0.00339352     0.32500
C268        C  0.16633438  0.83371210  0.80658022     0.32500
C269        C  0.14778745  0.85055680  0.95495738    -0.03700
C270        C  0.20177541  0.85229876  0.95497574    -0.04400
C271        C  0.14944254  0.79828114  0.95498530    -0.04300
C272        C  0.14768369  0.85070098  0.85536981    -0.03700
C273        C  0.20202429  0.85240103  0.85538774    -0.04400
C274        C  0.14930126  0.79803280  0.85539950    -0.04300
C275        C  0.13025743  0.86747361  0.82792572    -0.29700
N276        N  0.12006456  0.87712033  0.90734415     0.16800
C277        C  0.13058943  0.86701676  0.98478321    -0.29700
H278        H  0.12631728  0.87164546  0.05745765     0.18700
C279        C  0.23627207  0.86979360  0.82795626    -0.28700
N280        N  0.25613965  0.87996999  0.90738485     0.15500
C281        C  0.23548278  0.86946633  0.98481694    -0.28700
C282        C  0.13259752  0.76379643  0.82797607    -0.29000
N283        N  0.12298610  0.74393538  0.90740806     0.16000
H284        H  0.12757403  0.75408257  0.75609575     0.18600
C285        C  0.13304581  0.76458460  0.98483508    -0.29000
H286        H  0.12846560  0.75567013  0.05751536     0.18600
H287        H  0.24439743  0.87370969  0.05749425     0.18600
H288        H  0.12563637  0.87255397  0.75603952     0.18700
H289        H  0.24598708  0.87438086  0.75607569     0.18600
C290        C  0.16632392  0.83369874  0.30657978     0.32500
C291        C  0.16632175  0.83369629  0.50339306     0.32500
C292        C  0.14932918  0.85234233  0.35537257    -0.03700
C293        C  0.14763495  0.79801517  0.35539281    -0.04400
C294        C  0.20201069  0.85073180  0.35539049    -0.04300
C295        C  0.14947200  0.85223622  0.45495929    -0.03700
C296        C  0.14773607  0.79826190  0.45498097    -0.04400
C297        C  0.20176135  0.85058836  0.45497687    -0.04300
C298        C  0.13303186  0.86945318  0.48478747    -0.29700
N299        N  0.12294216  0.87999219  0.40735023     0.16800
C300        C  0.13257808  0.86978960  0.32793150    -0.29700
H301        H  0.12751373  0.87442744  0.25604615     0.18700
C302        C  0.13058076  0.76456045  0.48482591    -0.28700
N303        N  0.12008596  0.74390937  0.40739611     0.15500
C304        C  0.13025588  0.76377502  0.32796614    -0.28700
C305        C  0.23546491  0.86699846  0.48482207    -0.29000
N306        N  0.25611942  0.87706889  0.40739027     0.16000
H307        H  0.24438037  0.87158551  0.55750150     0.18600
C308        C  0.23625500  0.86745096  0.32796092    -0.29000
H309        H  0.24597185  0.87248541  0.25607896     0.18600
H310        H  0.12567788  0.75406401  0.25608703     0.19600
H311        H  0.12841645  0.87373814  0.55746261     0.18700
H312        H  0.12634457  0.75564621  0.55750405     0.18600
O313        O  0.04329433  0.98486290  0.05909631    -0.85800
C314        C  0.05530336  0.55345500  0.86298933     0.90200
Mg315      Mg  0.00537375  0.93137629  0.06220774     1.58100
O316        O  0.01534554  0.55916693  0.05912408    -0.85500
O317        O  0.05998770  0.52876765  0.15414401    -0.72900
C318        C  0.35940212  0.92753203  0.94552600     0.95300
O319        O  0.02824372  0.96865846  0.84578059    -0.72700
O320        O  0.37412442  0.90979404  0.93458461    -0.80200
Mg321      Mg  0.07433235  0.50591017  0.93773066     1.58000
C322        C  0.42725984  0.56791548  0.05458089     0.95200
O323        O  0.12462052  0.54246041  0.02067031    -0.78500
H324        H  0.01796995  0.57347531  0.19073799    -0.03800
C325        C  0.44666885  0.00248170  0.86303327     0.90100
O326        O  0.46815483  0.94015215  0.15419222    -0.73000
O327        O  0.05877635  0.54376608  0.94086882    -0.85700
O328        O  0.45779565  0.58285011  0.02074826    -0.78500
C329        C  0.06766794  0.64066462  0.94547889     0.95300
C330        C  0.14027764  0.57299221  0.05447402     0.95200
Mg331      Mg  0.42534750  0.99461411  0.06226946     1.58000
O332        O  0.37505930  0.95806384  0.97932958    -0.78500
O333        O  0.47143613  0.53186587  0.15421956    -0.72700
O334        O  0.08259519  0.62508608  0.97924180    -0.78500
O335        O  0.09017901  0.96511088  0.93442780    -0.80300
O336        O  0.41708461  0.87543820  0.02075787    -0.78600
C337        C  0.50218167  0.55567006  0.13702234     0.89600
O338        O  0.44090347  0.95675828  0.05913122    -0.85700
O339        O  0.45638559  0.51566143  0.94090372    -0.85800
O340        O  0.43969215  0.97175664  0.84585622    -0.72900
Mg341      Mg  0.06883452  0.57481175  0.06218719     1.58000
O342        O  0.03516102  0.62585807  0.93453532    -0.80200
H343        H  0.05504580  0.98228892  0.19068485    -0.04000
O344        O  0.48433434  0.94135748  0.94087572    -0.85500
H345        H  0.48170953  0.92704858  0.80926057    -0.03800
H346        H  0.42657109  0.94501169  0.19072171    -0.04000
C347        C  0.99749799  0.94485397  0.86297680     0.89600
C348        C  0.05301104  0.49804274  0.13696635     0.90200
C349        C  0.44437625  0.94706915  0.13701071     0.90200
H350        H  0.44463399  0.51823544  0.80931505    -0.04000
O351        O  0.03152482  0.56037203  0.84580769    -0.73000
Mg352      Mg  0.43084533  0.92571254  0.93781284     1.58000
H353        H  0.07310848  0.55551245  0.80927842    -0.04000
C354        C  0.07241996  0.93260883  0.94541894     0.95200
O355        O  0.46451875  0.87466620  0.06546424    -0.80200
C356        C  0.43201184  0.85985962  0.05452062     0.95300
O357        O  0.12555539  0.59073026  0.06541519    -0.80200
Mg358      Mg  0.49430615  0.56914796  0.93779219     1.58200
O359        O  0.04188414  0.91767415  0.97925158    -0.78500
O360        O  0.40950084  0.53541345  0.06557175    -0.80200
O361        O  0.48442702  0.54370146  0.44090874    -0.85800
C362        C  0.05303799  0.55570890  0.63700544     0.90200
Mg363      Mg  0.43092895  0.50578703  0.43779988     1.58100
O364        O  0.05876799  0.51577463  0.44086967    -0.85500
O365        O  0.02834598  0.56039591  0.34586280    -0.72900
C366        C  0.42711424  0.85985548  0.55446216     0.95300
O367        O  0.46821673  0.52864383  0.65422968    -0.72700
O368        O  0.40936579  0.87456732  0.56540859    -0.80200
Mg369      Mg  0.00547612  0.57472581  0.56227993     1.58000
C370        C  0.06751723  0.92770527  0.44541151     0.95200
O371        O  0.04202752  0.62500704  0.47934592    -0.78500
H372        H  0.07308580  0.51840463  0.30925273    -0.03800
C373        C  0.50206775  0.94710845  0.63696377     0.90100
O374        O  0.43971319  0.96858183  0.34581111    -0.73000
O375        O  0.04334223  0.55917653  0.55913000    -0.85700
O376        O  0.08245960  0.95823385  0.47924614    -0.78500
C377        C  0.14027259  0.56809300  0.55452542     0.95300
C378        C  0.07256559  0.64066887  0.44553785     0.95200
Mg379      Mg  0.49420364  0.92579851  0.43771972     1.58000
O380        O  0.45765231  0.87551730  0.52065409    -0.78500
O381        O  0.03146300  0.97188046  0.34577041    -0.72700
O382        O  0.12468371  0.58301090  0.52076879    -0.78500
O383        O  0.46467042  0.59056692  0.56559003    -0.80300
O384        O  0.37499602  0.91751336  0.47923119    -0.78600
C385        C  0.05527393  0.00261786  0.36296885     0.89600
O386        O  0.45633745  0.94134768  0.44086981    -0.85700
O387        O  0.01525285  0.95682291  0.55909119    -0.85800
O388        O  0.47133381  0.94012840  0.65413724    -0.72900
Mg389      Mg  0.07440203  0.56924863  0.43781605     1.58000
O390        O  0.12547270  0.53559195  0.56545314    -0.80200
H391        H  0.48185391  0.55544451  0.30930979    -0.04000
O392        O  0.44091169  0.98474961  0.55913030    -0.85500
H393        H  0.42659435  0.98212002  0.69074605    -0.03800
H394        H  0.44458617  0.92701471  0.30929101    -0.04000
C395        C  0.44440611  0.49790663  0.63703035     0.89600
C396        C  0.99761202  0.55341596  0.36303596     0.90200
C397        C  0.44664155  0.94481536  0.36299499     0.90200
H398        H  0.01782564  0.94507981  0.69068897    -0.04000
O399        O  0.05996642  0.53194231  0.65418853    -0.73000
Mg400      Mg  0.42527779  0.93127566  0.56218403     1.58000
H401        H  0.05509342  0.57350965  0.69070994    -0.04000
C402        C  0.43216255  0.57281907  0.55458855     0.95200
O403        O  0.37420707  0.96493237  0.43454691    -0.80200
C404        C  0.35940715  0.93243129  0.44547469     0.95300
O405        O  0.09031405  0.62595703  0.43459144    -0.80200
Mg406      Mg  0.06875090  0.99473735  0.56220049     1.58200
O407        O  0.41722020  0.54229054  0.52075387    -0.78500
O408        O  0.03500937  0.90995740  0.43440952    -0.80200
C409        C  0.08815202  0.67678266  0.42250471    -0.10700
C410        C  0.10255953  0.70768725  0.41132714    -0.12300
C411        C  0.29235341  0.89556120  0.41131795    -0.10700
C412        C  0.32327296  0.91192593  0.42248698    -0.12300
C413        C  0.10439827  0.89763101  0.41126655    -0.10700
C414        C  0.08800627  0.91211295  0.42242456    -0.12300
C415        C  0.10451576  0.70770859  0.91133973    -0.10700
C416        C  0.08816663  0.67679417  0.92250379    -0.12300
C417        C  0.29236958  0.89751636  0.91131365    -0.10700
C418        C  0.32328089  0.91193852  0.92249191    -0.12300
C419        C  0.08800328  0.91211354  0.92242036    -0.10700
C420        C  0.10246027  0.89569811  0.91125926    -0.12300
C421        C  0.16632744  0.83369790  0.61121262    -0.10700
C422        C  0.16633355  0.83370535  0.69877435    -0.12300
C423        C  0.16633348  0.83370768  0.11121270    -0.10700
C424        C  0.16632957  0.83370153  0.19877423    -0.12300
C425        C  0.39528142  0.60289330  0.58873393    -0.10700
C426        C  0.41167349  0.58841145  0.57757527    -0.12300
C427        C  0.41152780  0.82374171  0.57749551    -0.10700
C428        C  0.39712027  0.79283714  0.58867384    -0.12300
C429        C  0.20732632  0.60496303  0.58868129    -0.10700
C430        C  0.17640676  0.58859829  0.57751304    -0.12300
C431        C  0.41167643  0.58841074  0.07757936    -0.10700
C432        C  0.39721945  0.60482615  0.08874072    -0.12300
C433        C  0.39516402  0.79281566  0.08866016    -0.10700
C434        C  0.41151314  0.82373008  0.07749605    -0.12300
C435        C  0.20731011  0.60300784  0.08868680    -0.10700
C436        C  0.17639884  0.58858570  0.07750797    -0.12300
C437        C  0.33334620  0.66681654  0.88878745    -0.10700
C438        C  0.33335003  0.66682267  0.80122588    -0.12300
C439        C  0.33335251  0.66682659  0.38878754    -0.10700
C440        C  0.33334619  0.66681893  0.30122582    -0.12300
C441        C  0.83334541  0.16681212  0.19342008     0.32500
C442        C  0.83334642  0.16681141  0.99660676     0.32500
C443        C  0.85199612  0.14982330  0.14463022    -0.03700
C444        C  0.79765554  0.14812320  0.14461244    -0.04400
C445        C  0.85037844  0.20249144  0.14460085    -0.04300
C446        C  0.85189224  0.14996743  0.04504260    -0.03700
C447        C  0.79790432  0.14822546  0.04502472    -0.04400
C448        C  0.85023716  0.20224314  0.04501477    -0.04300
C449        C  0.86909031  0.13350749  0.01521663    -0.29700
N450        N  0.87961528  0.12340402  0.09265585     0.16800
C451        C  0.86942257  0.13305087  0.17207435    -0.29700
H452        H  0.87404353  0.12797034  0.24396050     0.18700
C453        C  0.76419693  0.13105791  0.01518360    -0.28700
N454        N  0.74354007  0.12055427  0.09261525     0.15500
C455        C  0.76340787  0.13073077  0.17204278    -0.28700
C456        C  0.86663395  0.23593976  0.01516410    -0.29000
N457        N  0.87669364  0.25658884  0.09259195     0.16000
H458        H  0.87121430  0.24485434  0.94248340     0.18600
C459        C  0.86708225  0.23672785  0.17202460    -0.29000
H460        H  0.87210574  0.24644174  0.24390517     0.18600
H461        H  0.75369295  0.12614355  0.24392274     0.18600
H462        H  0.87336246  0.12887876  0.94254211     0.18700
H463        H  0.75528230  0.12681458  0.94250639     0.18600
C464        C  0.83335810  0.16682810  0.49660724     0.32500
C465        C  0.83335574  0.16682553  0.69342053     0.32500
C466        C  0.85020787  0.14828813  0.54504072    -0.03700
C467        C  0.85194370  0.20226251  0.54501943    -0.04400
C468        C  0.79791851  0.14993600  0.54502312    -0.04300
C469        C  0.85035062  0.14818203  0.64462793    -0.03700
C470        C  0.85204472  0.20250909  0.64460773    -0.04400
C471        C  0.79766903  0.14979250  0.64460927    -0.04300
C472        C  0.86710166  0.13073472  0.67206933    -0.29700
N473        N  0.87673764  0.12053219  0.59264987     0.16800
C474        C  0.86664801  0.13107096  0.51521098    -0.29700
H475        H  0.87126364  0.12678604  0.44253497     0.18700
C476        C  0.86942375  0.23674909  0.67203370    -0.28700
N477        N  0.87959376  0.25661493  0.59260419     0.15500
C478        C  0.86909911  0.23596413  0.51517350    -0.28700
C479        C  0.76342465  0.13307316  0.67203876    -0.29000
N480        N  0.74356036  0.12345540  0.59260947     0.16000
H481        H  0.75370780  0.12803888  0.74392079     0.18600
C482        C  0.76421513  0.13352598  0.51517890    -0.29000
H483        H  0.75529983  0.12893902  0.44250015     0.18600
H484        H  0.87333541  0.24487856  0.44249485     0.18600
H485        H  0.87216609  0.12609693  0.74395490     0.18700
H486        H  0.87400172  0.24646005  0.74391237     0.18600
C487        C  0.66633333  0.33371289  0.00339344     0.32500
C488        C  0.66633440  0.33371212  0.80658020     0.32500
C489        C  0.64778757  0.35055691  0.95495729    -0.03700
C490        C  0.70177547  0.35229877  0.95497558    -0.04400
C491        C  0.64944253  0.29828117  0.95498531    -0.04300
C492        C  0.64768371  0.35070100  0.85536985    -0.03700
C493        C  0.70202426  0.35240105  0.85538771    -0.04400
C494        C  0.64930134  0.29803281  0.85539945    -0.04300
C495        C  0.63025730  0.36747348  0.82792584    -0.29700
N496        N  0.62006456  0.37712034  0.90734409     0.16800
C497        C  0.63058954  0.36701682  0.98478286    -0.29700
H498        H  0.62631736  0.37164546  0.05745718     0.18700
C499        C  0.73627197  0.36979354  0.82795672    -0.28700
N500        N  0.75613968  0.37996994  0.90738486     0.15500
C501        C  0.73548285  0.36946643  0.98481684    -0.28700
C502        C  0.63259764  0.26379643  0.82797588    -0.29000
N503        N  0.62298609  0.24393543  0.90740809     0.16000
H504        H  0.62757405  0.25408256  0.75609547     0.18600
C505        C  0.63304576  0.26458463  0.98483530    -0.29000
H506        H  0.62846551  0.25567017  0.05751568     0.18600
H507        H  0.74439751  0.37370968  0.05749415     0.18600
H508        H  0.62563640  0.37255398  0.75603969     0.18700
H509        H  0.74598689  0.37438066  0.75607640     0.18600
C510        C  0.66632387  0.33369867  0.30657983     0.32500
C511        C  0.66632170  0.33369623  0.50339309     0.32500
C512        C  0.64932904  0.35234218  0.35537253    -0.03700
C513        C  0.64763494  0.29801513  0.35539290    -0.04400
C514        C  0.70201064  0.35073178  0.35539061    -0.04300
C515        C  0.64947194  0.35223616  0.45495930    -0.03700
C516        C  0.64773613  0.29826188  0.45498095    -0.04400
C517        C  0.70176132  0.35058827  0.45497698    -0.04300
C518        C  0.63303187  0.36945315  0.48478751    -0.29700
N519        N  0.62294212  0.37999213  0.40735026     0.16800
C520        C  0.63257815  0.36978970  0.32793127    -0.29700
H521        H  0.62751364  0.37442745  0.25604579     0.18700
C522        C  0.63058072  0.26456048  0.48482552    -0.28700
N523        N  0.62008601  0.24390934  0.40739608     0.15500
C524        C  0.63025602  0.26377500  0.32796631    -0.28700
C525        C  0.73546493  0.36699854  0.48482227    -0.29000
N526        N  0.75611938  0.37706886  0.40739031     0.16000
H527        H  0.74438042  0.37158547  0.55750180     0.18600
C528        C  0.73625490  0.36745099  0.32796111    -0.29000
H529        H  0.74597165  0.37248526  0.25607916     0.18600
H530        H  0.62567799  0.25406401  0.25608725     0.19600
H531        H  0.62841631  0.37373797  0.55746261     0.18700
H532        H  0.62634459  0.25564625  0.55750343     0.18600
O533        O  0.54329428  0.48486292  0.05909635    -0.85800
C534        C  0.55530332  0.05345508  0.86298996     0.90200
Mg535      Mg  0.50537364  0.43137631  0.06220792     1.58100
O536        O  0.51534562  0.05916702  0.05912409    -0.85500
O537        O  0.55998774  0.02876764  0.15414417    -0.72900
C538        C  0.85940213  0.42753207  0.94552594     0.95300
O539        O  0.52824375  0.46865851  0.84578064    -0.72700
O540        O  0.87412442  0.40979407  0.93458456    -0.80200
Mg541      Mg  0.57433235  0.00591020  0.93773080     1.58000
C542        C  0.92725981  0.06791543  0.05458102     0.95200
O543        O  0.62462051  0.04246042  0.02067033    -0.78500
H544        H  0.51796980  0.07347533  0.19073751    -0.03800
C545        C  0.94666881  0.50248156  0.86303389     0.90100
O546        O  0.96815497  0.44015226  0.15419193    -0.73000
O547        O  0.55877639  0.04376604  0.94086882    -0.85700
O548        O  0.95779560  0.08285011  0.02074828    -0.78500
C549        C  0.56766796  0.14066463  0.94547884     0.95300
C550        C  0.64027768  0.07299221  0.05447394     0.95200
Mg551      Mg  0.92534749  0.49461414  0.06226920     1.58000
O552        O  0.87505926  0.45806389  0.97932956    -0.78500
O553        O  0.97143609  0.03186583  0.15421938    -0.72700
O554        O  0.58259521  0.12508607  0.97924180    -0.78500
O555        O  0.59017898  0.46511082  0.93442792    -0.80300
O556        O  0.91708461  0.37543823  0.02075777    -0.78600
C557        C  0.00218167  0.05567020  0.13702250     0.89600
O558        O  0.94090349  0.45675825  0.05913105    -0.85700
O559        O  0.95638553  0.01566139  0.94090371    -0.85800
O560        O  0.93969214  0.47175673  0.84585585    -0.72900
Mg561      Mg  0.56883459  0.07481172  0.06218721     1.58000
O562        O  0.53516102  0.12585810  0.93453533    -0.80200
H563        H  0.55504573  0.48228889  0.19068495    -0.04000
O564        O  0.98433426  0.44135743  0.94087568    -0.85500
H565        H  0.98170965  0.42704865  0.80926087    -0.03800
H566        H  0.92657093  0.44501184  0.19072273    -0.04000
C567        C  0.49749797  0.44485391  0.86297660     0.89600
C568        C  0.55301114  0.99804286  0.13696596     0.90200
C569        C  0.94437619  0.44706925  0.13701121     0.90200
H570        H  0.94463409  0.01823551  0.80931477    -0.04000
O571        O  0.53152496  0.06037211  0.84580747    -0.73000
Mg572      Mg  0.93084530  0.42571260  0.93781255     1.58000
H573        H  0.57310833  0.05551257  0.80927954    -0.04000
C574        C  0.57241994  0.43260881  0.94541908     0.95200
O575        O  0.96451873  0.37466619  0.06546429    -0.80200
C576        C  0.93201183  0.35985964  0.05452061     0.95300
O577        O  0.62555542  0.09073021  0.06541515    -0.80200
Mg578      Mg  0.99430608  0.06914799  0.93779232     1.58200
O579        O  0.54188409  0.41767417  0.97925168    -0.78500
O580        O  0.90950075  0.03541338  0.06557185    -0.80200
O581        O  0.98442691  0.04370134  0.44090865    -0.85800
C582        C  0.55303816  0.05570901  0.63700507     0.90200
Mg583      Mg  0.93092896  0.00578699  0.43779962     1.58100
O584        O  0.55876795  0.01577465  0.44086973    -0.85500
O585        O  0.52834594  0.06039588  0.34586286    -0.72900
C586        C  0.92711424  0.35985544  0.55446206     0.95300
O587        O  0.96821668  0.02864386  0.65422968    -0.72700
O588        O  0.90936584  0.37456732  0.56540856    -0.80200
Mg589      Mg  0.50547609  0.07472587  0.56228000     1.58000
C590        C  0.56751724  0.42770528  0.44541140     0.95200
O591        O  0.54202743  0.12500699  0.47934577    -0.78500
H592        H  0.57308579  0.01840466  0.30925268    -0.03800
C593        C  0.00206778  0.44710853  0.63696390     0.90100
O594        O  0.93971326  0.46858195  0.34581137    -0.73000
O595        O  0.54334226  0.05917664  0.55913003    -0.85700
O596        O  0.58245961  0.45823385  0.47924598    -0.78500
C597        C  0.64027260  0.06809300  0.55452531     0.95300
C598        C  0.57256550  0.14066881  0.44553776     0.95200
Mg599      Mg  0.99420357  0.42579843  0.43771980     1.58000
O600        O  0.95765229  0.37551731  0.52065399    -0.78500
O601        O  0.53146294  0.47188047  0.34577047    -0.72700
O602        O  0.62468372  0.08301093  0.52076880    -0.78500
O603        O  0.96467040  0.09056691  0.56558988    -0.80300
O604        O  0.87499601  0.41751335  0.47923119    -0.78600
C605        C  0.55527383  0.50261787  0.36296884     0.89600
O606        O  0.95633749  0.44134773  0.44086982    -0.85700
O607        O  0.51525284  0.45682285  0.55909115    -0.85800
O608        O  0.97133379  0.44012845  0.65413709    -0.72900
Mg609      Mg  0.57440199  0.06924869  0.43781614     1.58000
O610        O  0.62547268  0.03559194  0.56545306    -0.80200
H611        H  0.98185410  0.05544452  0.30931056    -0.04000
O612        O  0.94091161  0.48474961  0.55913017    -0.85500
H613        H  0.92659430  0.48212009  0.69074576    -0.03800
H614        H  0.94458635  0.42701477  0.30929026    -0.04000
C615        C  0.94440603  0.99790663  0.63703036     0.89600
C616        C  0.49761197  0.05341583  0.36303601     0.90200
C617        C  0.94664171  0.44481543  0.36299464     0.90200
H618        H  0.51782565  0.44507981  0.69068888    -0.04000
O619        O  0.55996653  0.03194248  0.65418878    -0.73000
Mg620      Mg  0.92527767  0.43127558  0.56218406     1.58000
H621        H  0.55509357  0.07350969  0.69070925    -0.04000
C622        C  0.93216251  0.07281902  0.55458836     0.95200
O623        O  0.87420702  0.46493232  0.43454690    -0.80200
C624        C  0.85940712  0.43243125  0.44547457     0.95300
O625        O  0.59031398  0.12595699  0.43459144    -0.80200
Mg626      Mg  0.56875083  0.49473725  0.56220028     1.58200
O627        O  0.91722014  0.04229044  0.52075381    -0.78500
O628        O  0.53500936  0.40995743  0.43440945    -0.80200
C629        C  0.58815195  0.17678259  0.42250455    -0.10700
C630        C  0.60255948  0.20768719  0.41132708    -0.12300
C631        C  0.79235336  0.39556122  0.41131798    -0.10700
C632        C  0.82327291  0.41192594  0.42248701    -0.12300
C633        C  0.60439833  0.39763104  0.41126651    -0.10700
C634        C  0.58800632  0.41211298  0.42242442    -0.12300
C635        C  0.60451578  0.20770865  0.91133977    -0.10700
C636        C  0.58816664  0.17679422  0.92250379    -0.12300
C637        C  0.79236962  0.39751641  0.91131364    -0.10700
C638        C  0.82328092  0.41193855  0.92249200    -0.12300
C639        C  0.58800331  0.41211358  0.92242034    -0.10700
C640        C  0.60246025  0.39569811  0.91125924    -0.12300
C641        C  0.66632738  0.33369782  0.61121261    -0.10700
C642        C  0.66633362  0.33370538  0.69877434    -0.12300
C643        C  0.66633348  0.33370774  0.11121269    -0.10700
C644        C  0.66632961  0.33370153  0.19877425    -0.12300
C645        C  0.89528143  0.10289328  0.58873390    -0.10700
C646        C  0.91167344  0.08841138  0.57757515    -0.12300
C647        C  0.91152776  0.32374162  0.57749539    -0.10700
C648        C  0.89712023  0.29283705  0.58867380    -0.12300
C649        C  0.70732638  0.10496310  0.58868127    -0.10700
C650        C  0.67640680  0.08859833  0.57751305    -0.12300
C651        C  0.91167648  0.08841074  0.07757933    -0.10700
C652        C  0.89721953  0.10482619  0.08874078    -0.12300
C653        C  0.89516404  0.29281564  0.08866014    -0.10700
C654        C  0.91151319  0.32373008  0.07749595    -0.12300
C655        C  0.70731013  0.10300787  0.08868679    -0.10700
C656        C  0.67639886  0.08858573  0.07750796    -0.12300
C657        C  0.83334628  0.16681655  0.88878757    -0.10700
C658        C  0.83335003  0.16682267  0.80122605    -0.12300
C659        C  0.83335248  0.16682651  0.38878773    -0.10700
C660        C  0.83334627  0.16681895  0.30122601    -0.12300
C661        C  0.83334541  0.66681214  0.19341993     0.32500
C662        C  0.83334641  0.66681142  0.99660665     0.32500
C663        C  0.85199608  0.64982328  0.14463009    -0.03700
C664        C  0.79765556  0.64812329  0.14461228    -0.04400
C665        C  0.85037846  0.70249146  0.14460072    -0.04300
C666        C  0.85189219  0.64996739  0.04504255    -0.03700
C667        C  0.79790433  0.64822546  0.04502470    -0.04400
C668        C  0.85023716  0.70224313  0.04501471    -0.04300
C669        C  0.86909028  0.63350748  0.01521685    -0.29700
N670        N  0.87961526  0.62340398  0.09265587     0.16800
C671        C  0.86942253  0.63305083  0.17207424    -0.29700
H672        H  0.87404343  0.62797029  0.24396040     0.18700
C673        C  0.76419695  0.63105788  0.01518378    -0.28700
N674        N  0.74354004  0.62055431  0.09261522     0.15500
C675        C  0.76340794  0.63073075  0.17204246    -0.28700
C676        C  0.86663394  0.73593971  0.01516427    -0.29000
N677        N  0.87669363  0.75658884  0.09259194     0.16000
H678        H  0.87121424  0.74485426  0.94248368     0.18600
C679        C  0.86708225  0.73672785  0.17202457    -0.29000
H680        H  0.87210570  0.74644168  0.24390524     0.18600
H681        H  0.75369314  0.62614376  0.24392238     0.18600
H682        H  0.87336249  0.62887880  0.94254247     0.18700
H683        H  0.75528238  0.62681470  0.94250663     0.18600
C684        C  0.83335813  0.66682810  0.49660706     0.32500
C685        C  0.83335576  0.66682552  0.69342033     0.32500
C686        C  0.85020786  0.64828810  0.54504070    -0.03700
C687        C  0.85194370  0.70226249  0.54501938    -0.04400
C688        C  0.79791853  0.64993605  0.54502297    -0.04300
C689        C  0.85035070  0.64818209  0.64462772    -0.03700
C690        C  0.85204472  0.70250908  0.64460753    -0.04400
C691        C  0.79766904  0.64979248  0.64460908    -0.04300
C692        C  0.86710160  0.63073468  0.67206900    -0.29700
N693        N  0.87673764  0.62053217  0.59264984     0.16800
C694        C  0.86664800  0.63107103  0.51521145    -0.29700
H695        H  0.87126358  0.62678615  0.44253568     0.18700
C696        C  0.86942375  0.73674909  0.67203349    -0.28700
N697        N  0.87959378  0.75661499  0.59260424     0.15500
C698        C  0.86909909  0.73596410  0.51517393    -0.28700
C699        C  0.76342467  0.63307313  0.67203865    -0.29000
N700        N  0.74356036  0.62345536  0.59260943     0.16000
H701        H  0.75370786  0.62803886  0.74392071     0.18600
C702        C  0.76421515  0.63352595  0.51517890    -0.29000
H703        H  0.75529987  0.62893906  0.44250016     0.18600
H704        H  0.87333540  0.74487852  0.44249553     0.18600
H705        H  0.87216599  0.62609693  0.74395454     0.18700
H706        H  0.87400168  0.74646001  0.74391215     0.18600
C707        C  0.66633331  0.83371287  0.00339340     0.32500
C708        C  0.66633438  0.83371212  0.80658013     0.32500
C709        C  0.64778749  0.85055685  0.95495725    -0.03700
C710        C  0.70177544  0.85229876  0.95497559    -0.04400
C711        C  0.64944260  0.79828116  0.95498522    -0.04300
C712        C  0.64768367  0.85070096  0.85536982    -0.03700
C713        C  0.70202426  0.85240105  0.85538766    -0.04400
C714        C  0.64930131  0.79803281  0.85539942    -0.04300
C715        C  0.63025744  0.86747355  0.82792600    -0.29700
N716        N  0.62006454  0.87712030  0.90734411     0.16800
C717        C  0.63058941  0.86701673  0.98478296    -0.29700
H718        H  0.62631727  0.87164545  0.05745732     0.18700
C719        C  0.73627201  0.86979351  0.82795656    -0.28700
N720        N  0.75613966  0.87996997  0.90738487     0.15500
C721        C  0.73548282  0.86946640  0.98481687    -0.28700
C722        C  0.63259763  0.76379643  0.82797603    -0.29000
N723        N  0.62298607  0.74393539  0.90740806     0.16000
H724        H  0.62757404  0.75408255  0.75609572     0.18600
C725        C  0.63304574  0.76458462  0.98483507    -0.29000
H726        H  0.62846555  0.75567017  0.05751536     0.18600
H727        H  0.74439749  0.87370970  0.05749417     0.18600
H728        H  0.62563643  0.87255392  0.75603996     0.18700
H729        H  0.74598702  0.87438080  0.75607623     0.18600
C730        C  0.66632390  0.83369871  0.30657974     0.32500
C731        C  0.66632172  0.83369627  0.50339303     0.32500
C732        C  0.64932912  0.85234229  0.35537245    -0.03700
C733        C  0.64763493  0.79801515  0.35539279    -0.04400
C734        C  0.70201066  0.85073179  0.35539049    -0.04300
C735        C  0.64947192  0.85223616  0.45495931    -0.03700
C736        C  0.64773612  0.79826187  0.45498095    -0.04400
C737        C  0.70176134  0.85058837  0.45497696    -0.04300
C738        C  0.63303180  0.86945314  0.48478764    -0.29700
N739        N  0.62294215  0.87999217  0.40735021     0.16800
C740        C  0.63257809  0.86978968  0.32793109    -0.29700
H741        H  0.62751364  0.87442755  0.25604561     0.18700
C742        C  0.63058067  0.76456043  0.48482591    -0.28700
N743        N  0.62008601  0.74390936  0.40739611     0.15500
C744        C  0.63025602  0.76377501  0.32796616    -0.28700
C745        C  0.73546494  0.86699854  0.48482238    -0.29000
N746        N  0.75611937  0.87706890  0.40739029     0.16000
H747        H  0.74438049  0.87158560  0.55750190     0.18600
C748        C  0.73625496  0.86745096  0.32796086    -0.29000
H749        H  0.74597181  0.87248541  0.25607888     0.18600
H750        H  0.62567797  0.75406400  0.25608706     0.19600
H751        H  0.62841634  0.87373812  0.55746279     0.18700
H752        H  0.62634456  0.75564618  0.55750405     0.18600
O753        O  0.54329431  0.98486287  0.05909645    -0.85800
C754        C  0.55530328  0.55345502  0.86298985     0.90200
Mg755      Mg  0.50537365  0.93137626  0.06220802     1.58100
O756        O  0.51534560  0.55916699  0.05912406    -0.85500
O757        O  0.55998768  0.52876766  0.15414395    -0.72900
C758        C  0.85940212  0.92753207  0.94552600     0.95300
O759        O  0.52824375  0.96865848  0.84578066    -0.72700
O760        O  0.87412444  0.90979410  0.93458460    -0.80200
Mg761      Mg  0.57433235  0.50591019  0.93773072     1.58000
C762        C  0.92725983  0.56791546  0.05458103     0.95200
O763        O  0.62462051  0.54246040  0.02067037    -0.78500
H764        H  0.51796986  0.57347523  0.19073757    -0.03800
C765        C  0.94666877  0.00248161  0.86303355     0.90100
O766        O  0.96815494  0.94015221  0.15419195    -0.73000
O767        O  0.55877643  0.54376610  0.94086878    -0.85700
O768        O  0.95779562  0.58285012  0.02074828    -0.78500
C769        C  0.56766794  0.64066461  0.94547884     0.95300
C770        C  0.64027766  0.57299221  0.05447400     0.95200
Mg771      Mg  0.92534745  0.99461409  0.06226927     1.58000
O772        O  0.87505926  0.95806386  0.97932960    -0.78500
O773        O  0.97143609  0.53186581  0.15421941    -0.72700
O774        O  0.58259522  0.62508607  0.97924176    -0.78500
O775        O  0.59017903  0.96511088  0.93442788    -0.80300
O776        O  0.91708460  0.87543822  0.02075784    -0.78600
C777        C  0.00218167  0.55567016  0.13702250     0.89600
O778        O  0.94090351  0.95675827  0.05913111    -0.85700
O779        O  0.95638551  0.51566145  0.94090368    -0.85800
O780        O  0.93969215  0.97175666  0.84585601    -0.72900
Mg781      Mg  0.56883457  0.57481174  0.06218707     1.58000
O782        O  0.53516101  0.62585808  0.93453531    -0.80200
H783        H  0.55504579  0.98228907  0.19068429    -0.04000
O784        O  0.98433426  0.94135743  0.94087568    -0.85500
H785        H  0.98170963  0.92704865  0.80926093    -0.03800
H786        H  0.92657088  0.94501175  0.19072267    -0.04000
C787        C  0.49749799  0.94485388  0.86297665     0.89600
C788        C  0.55301098  0.49804274  0.13696635     0.90200
C789        C  0.94437614  0.94706918  0.13701118     0.90200
H790        H  0.94463404  0.51823533  0.80931549    -0.04000
O791        O  0.53152493  0.56037207  0.84580745    -0.73000
Mg792      Mg  0.93084529  0.92571254  0.93781266     1.58000
H793        H  0.57310828  0.55551249  0.80927940    -0.04000
C794        C  0.57241996  0.93260884  0.94541905     0.95200
O795        O  0.96451874  0.87466619  0.06546421    -0.80200
C796        C  0.93201183  0.85985963  0.05452063     0.95300
O797        O  0.62555545  0.59073026  0.06541516    -0.80200
Mg798      Mg  0.99430608  0.56914798  0.93779226     1.58200
O799        O  0.54188411  0.91767417  0.97925168    -0.78500
O800        O  0.90950080  0.53541343  0.06557182    -0.80200
O801        O  0.98442694  0.54370146  0.44090864    -0.85800
C802        C  0.55303808  0.55570898  0.63700545     0.90200
Mg803      Mg  0.93092895  0.50578702  0.43779973     1.58100
O804        O  0.55876798  0.51577463  0.44086970    -0.85500
O805        O  0.52834602  0.56039588  0.34586307    -0.72900
C806        C  0.92711424  0.85985547  0.55446210     0.95300
O807        O  0.96821669  0.52864383  0.65422968    -0.72700
O808        O  0.90936582  0.87456732  0.56540855    -0.80200
Mg809      Mg  0.50547613  0.57472584  0.56228003     1.58000
C810        C  0.56751721  0.92770527  0.44541146     0.95200
O811        O  0.54202755  0.62500704  0.47934596    -0.78500
H812        H  0.57308573  0.51840463  0.30925269    -0.03800
C813        C  0.00206775  0.94710848  0.63696384     0.90100
O814        O  0.93971320  0.96858184  0.34581112    -0.73000
O815        O  0.54334225  0.55917655  0.55913002    -0.85700
O816        O  0.58245958  0.95823384  0.47924608    -0.78500
C817        C  0.64027262  0.56809303  0.55452535     0.95300
C818        C  0.57256558  0.64066887  0.44553779     0.95200
Mg819      Mg  0.99420362  0.92579851  0.43771976     1.58000
O820        O  0.95765229  0.87551731  0.52065406    -0.78500
O821        O  0.53146296  0.97188047  0.34577034    -0.72700
O822        O  0.62468374  0.58301094  0.52076885    -0.78500
O823        O  0.96467041  0.59056692  0.56559000    -0.80300
O824        O  0.87499600  0.91751338  0.47923117    -0.78600
C825        C  0.55527388  0.00261787  0.36296883     0.89600
O826        O  0.95633747  0.94134768  0.44086978    -0.85700
O827        O  0.51525283  0.95682291  0.55909120    -0.85800
O828        O  0.97133378  0.94012843  0.65413718    -0.72900
Mg829      Mg  0.57440205  0.56924864  0.43781619     1.58000
O830        O  0.62547269  0.53559197  0.56545306    -0.80200
H831        H  0.98185411  0.55544454  0.30931061    -0.04000
O832        O  0.94091164  0.98474961  0.55913022    -0.85500
H833        H  0.92659427  0.98212004  0.69074592    -0.03800
H834        H  0.94458629  0.92701483  0.30929098    -0.04000
C835        C  0.94440606  0.49790664  0.63703026     0.89600
C836        C  0.49761193  0.55341596  0.36303557     0.90200
C837        C  0.94664163  0.94481543  0.36299499     0.90200
H838        H  0.51782565  0.94507983  0.69068882    -0.04000
O839        O  0.55996643  0.53194232  0.65418856    -0.73000
Mg840      Mg  0.92527774  0.93127566  0.56218400     1.58000
H841        H  0.55509347  0.57350972  0.69070998    -0.04000
C842        C  0.93216254  0.57281906  0.55458852     0.95200
O843        O  0.87420704  0.96493239  0.43454685    -0.80200
C844        C  0.85940713  0.93243130  0.44547454     0.95300
O845        O  0.59031403  0.62595702  0.43459144    -0.80200
Mg846      Mg  0.56875085  0.99473737  0.56220045     1.58200
O847        O  0.91722020  0.54229052  0.52075379    -0.78500
O848        O  0.53500935  0.90995742  0.43440953    -0.80200
C849        C  0.58815202  0.67678266  0.42250469    -0.10700
C850        C  0.60255953  0.70768725  0.41132712    -0.12300
C851        C  0.79235334  0.89556121  0.41131798    -0.10700
C852        C  0.82327289  0.91192595  0.42248701    -0.12300
C853        C  0.60439829  0.89763100  0.41126650    -0.10700
C854        C  0.58800631  0.91211297  0.42242447    -0.12300
C855        C  0.60451574  0.70770859  0.91133975    -0.10700
C856        C  0.58816658  0.67679417  0.92250379    -0.12300
C857        C  0.79236959  0.89751638  0.91131365    -0.10700
C858        C  0.82328090  0.91193856  0.92249199    -0.12300
C859        C  0.58800332  0.91211356  0.92242040    -0.10700
C860        C  0.60246028  0.89569811  0.91125924    -0.12300
C861        C  0.66632741  0.83369788  0.61121255    -0.10700
C862        C  0.66633361  0.83370534  0.69877427    -0.12300
C863        C  0.66633344  0.83370770  0.11121262    -0.10700
C864        C  0.66632962  0.83370154  0.19877416    -0.12300
C865        C  0.89528144  0.60289327  0.58873392    -0.10700
C866        C  0.91167353  0.58841145  0.57757527    -0.12300
C867        C  0.91152779  0.82374170  0.57749550    -0.10700
C868        C  0.89712027  0.79283714  0.58867383    -0.12300
C869        C  0.70732638  0.60496308  0.58868126    -0.10700
C870        C  0.67640681  0.58859830  0.57751309    -0.12300
C871        C  0.91167648  0.58841073  0.07757941    -0.10700
C872        C  0.89721954  0.60482618  0.08874079    -0.12300
C873        C  0.89516401  0.79281563  0.08866014    -0.10700
C874        C  0.91151317  0.82373007  0.07749606    -0.12300
C875        C  0.70731008  0.60300783  0.08868680    -0.10700
C876        C  0.67639882  0.58858572  0.07750798    -0.12300
C877        C  0.83334627  0.66681652  0.88878742    -0.10700
C878        C  0.83335004  0.66682266  0.80122586    -0.12300
C879        C  0.83335252  0.66682659  0.38878754    -0.10700
C880        C  0.83334625  0.66681891  0.30122582    -0.12300
loop_ 
_geom_bond_atom_site_label_1 
_geom_bond_atom_site_label_2 
_geom_bond_distance 
_geom_bond_site_symmetry_2 
_ccdc_geom_bond_type 
C1            C3   1.547       .  S
C1            C5   1.547       .  S
C1            C4   1.547       .  S
C1          C220   1.522       .  S
C2            C6   1.536   1_556  S
C2            C8   1.536   1_556  S
C2            C7   1.536   1_556  S
C2          C217   1.522       .  S
C3           C11   1.384       .  A
C3            C6   1.406       .  A
C4           C15   1.384       .  A
C4            C7   1.406       .  A
C5           C19   1.384       .  A
C5            C8   1.406       .  A
C6            C9   1.374       .  A
C7           C13   1.374       .  A
C8           C16   1.374       .  A
C9           N10   1.355       .  A
C9           H22   1.083   1_554  S
N10          C11   1.361       .  A
N10         C212   1.407       .  S
C11          H12   1.083       .  S
C13          N14   1.355       .  A
C13          H23   1.083   1_554  S
N14          C15   1.361       .  A
N14         C215   1.407       .  S
C15          H21   1.083       .  S
C16          N17   1.355       .  A
C16          H18   1.083   1_554  S
N17          C19   1.361       .  A
N17         C213   1.407       .  S
C19          H20   1.083       .  S
C24          C26   1.536       .  S
C24          C28   1.536       .  S
C24          C27   1.536       .  S
C24         C219   1.522       .  S
C25          C29   1.547       .  S
C25          C31   1.547       .  S
C25          C30   1.547       .  S
C25         C218   1.522       .  S
C26          C34   1.374       .  A
C26          C29   1.406       .  A
C27          C38   1.374       .  A
C27          C30   1.406       .  A
C28          C42   1.374       .  A
C28          C31   1.406       .  A
C29          C32   1.384       .  A
C30          C36   1.384       .  A
C31          C39   1.384       .  A
C32          N33   1.361       .  A
C32          H45   1.083       .  S
N33          C34   1.355       .  A
N33         C205   1.407       .  S
C34          H35   1.083       .  S
C36          N37   1.361       .  A
C36          H46   1.083       .  S
N37          C38   1.355       .  A
N37         C208   1.407       .  S
C38          H44   1.083       .  S
C39          N40   1.361       .  A
C39          H41   1.083       .  S
N40          C42   1.355       .  A
N40         C209   1.407       .  S
C42          H43   1.083       .  S
C47          C49   1.536   1_554  S
C47          C51   1.536   1_554  S
C47          C50   1.536   1_554  S
C47         C203   1.522       .  S
C48          C52   1.547       .  S
C48          C54   1.547       .  S
C48          C53   1.547       .  S
C48         C202   1.522       .  S
C49          C57   1.374       .  A
C49          C52   1.406       .  A
C50          C61   1.374       .  A
C50          C53   1.406       .  A
C51          C65   1.374       .  A
C51          C54   1.406       .  A
C52          C55   1.384       .  A
C53          C59   1.384       .  A
C54          C62   1.384       .  A
C55          N56   1.361       .  A
C55          H68   1.083       .  S
N56          C57   1.355       .  A
N56         C200   1.407       .  S
C57          H58   1.083   1_556  S
C59          N60   1.361       .  A
C59          H69   1.083       .  S
N60          C61   1.355       .  A
N60         C197   1.407       .  S
C61          H67   1.083   1_556  S
C62          N63   1.361       .  A
C62          H64   1.083       .  S
N63          C65   1.355       .  A
N63         C195   1.407       .  S
C65          H66   1.083   1_556  S
C70          C72   1.547       .  S
C70          C74   1.547       .  S
C70          C73   1.547       .  S
C70         C204   1.522       .  S
C71          C75   1.536       .  S
C71          C77   1.536       .  S
C71          C76   1.536       .  S
C71         C201   1.522       .  S
C72          C80   1.384       .  A
C72          C75   1.406       .  A
C73          C84   1.384       .  A
C73          C76   1.406       .  A
C74          C88   1.384       .  A
C74          C77   1.406       .  A
C75          C78   1.374       .  A
C76          C82   1.374       .  A
C77          C85   1.374       .  A
C78          N79   1.355       .  A
C78          H91   1.083       .  S
N79          C80   1.361       .  A
N79         C193   1.407       .  S
C80          H81   1.082       .  S
C82          N83   1.355       .  A
C82          H92   1.083       .  S
N83          C84   1.361       .  A
N83         C190   1.407       .  S
C84          H90   1.083       .  S
C85          N86   1.355       .  A
C85          H87   1.083       .  S
N86          C88   1.361       .  A
N86         C191   1.407       .  S
C88          H89   1.083       .  S
O93         Mg95   2.134       .  S
O93        Mg321   2.108   1_554  S
O93         C348   1.220       .  S
C94         H133   1.071       .  S
C94         O107   1.220       .  S
C94         O131   1.274       .  A
Mg95        O564   2.109   1_454  S
Mg95        O139   2.332   1_554  S
Mg95        O575   2.270   1_455  S
Mg95        O546   2.299   1_455  S
O96        Mg121   2.135       .  S
O96        Mg578   2.109   1_454  S
O96         C557   1.220       .  S
O97         C128   1.274   1_545  A
O97        Mg121   2.299       .  S
C98         O100   1.272       .  A
C98         O112   1.277       .  A
C98         C198   1.443       .  S
O99         C127   1.274   1_455  A
O99        Mg321   2.299       .  S
O100       Mg132   2.271       .  S
Mg101       O107   2.135       .  S
Mg101       O313   2.108   1_546  S
Mg101       O103   2.331   1_556  S
Mg101       O319   2.299   1_545  S
Mg101       O335   2.271   1_545  S
C102        O140   1.272       .  A
C102        O108   1.277       .  A
C102        C211   1.443       .  S
O103        C110   1.277       .  A
H104        C557   1.071       .  S
C105        H350   1.071       .  S
C105        O339   1.220       .  S
C105        O120   1.274       .  A
O106        C129   1.274       .  A
O106       Mg535   2.299       .  S
O107       Mg121   2.108   1_556  S
O108       Mg138   2.332   1_554  S
C109        O122   1.272       .  A
C109        O114   1.277       .  A
C109        C196   1.443       .  S
C110        O137   1.272       .  A
C110        C216   1.443       .  S
Mg111       O118   2.135       .  S
Mg111       O339   2.108   1_554  S
Mg111       O112   2.331   1_554  S
Mg111       O333   2.299       .  S
Mg111       O360   2.271       .  S
O113        C117   1.274       .  A
O113       Mg331   2.299   1_545  S
O114       Mg121   2.332   1_556  S
O115        C134   1.272       .  A
O115       Mg321   2.271       .  S
O116        C136   1.277       .  A
O116       Mg132   2.332   1_554  S
C117        H544   1.071       .  S
C117        O536   1.220       .  S
O118       Mg132   2.108   1_554  S
O118        C129   1.220       .  S
O119       Mg138   2.134       .  S
O119       Mg331   2.108   1_546  S
O119        C325   1.220       .  S
O120       Mg132   2.299       .  S
Mg121       O137   2.271       .  S
O122       Mg578   2.270   1_455  S
H123        C348   1.071       .  S
O124       Mg132   2.135       .  S
O124       Mg535   2.109   1_556  S
O124        C567   1.220       .  S
H125        C567   1.071       .  S
H126        C129   1.071       .  S
C127        H565   1.071       .  S
C127        O564   1.220       .  S
C128        H343   1.071       .  S
C128        O313   1.220       .  S
H130        C325   1.071       .  S
O131       Mg578   2.299   1_455  S
C134        O139   1.277       .  A
C134        C199   1.443       .  S
O135        C136   1.272       .  A
O135       Mg535   2.270       .  S
C136        C214   1.443       .  S
Mg138       O536   2.109   1_556  S
Mg138       O562   2.270       .  S
Mg138       O571   2.299       .  S
O140       Mg331   2.271   1_545  S
O141       Mg143   2.135       .  S
O141       Mg589   2.108       .  S
O141        C616   1.220       .  S
C142        H181   1.071       .  S
C142        O155   1.220       .  S
C142        O179   1.274       .  A
Mg143       O392   2.109   1_545  S
Mg143       O187   2.332       .  S
Mg143       O403   2.270   1_545  S
Mg143       O374   2.299   1_545  S
O144       Mg169   2.135       .  S
O144       Mg406   2.109   1_545  S
O144        C385   1.220       .  S
O145        C176   1.274   1_455  A
O145       Mg169   2.299       .  S
C146        O148   1.272       .  A
C146        O160   1.277       .  A
C146        C207   1.443       .  S
O147        C175   1.274   1_545  A
O147       Mg589   2.299       .  S
O148       Mg180   2.271       .  S
Mg149       O155   2.135       .  S
Mg149       O581   2.108   1_455  S
Mg149       O151   2.331       .  S
Mg149       O587   2.299   1_455  S
Mg149       O603   2.271   1_455  S
C150        O188   1.272       .  A
C150        O156   1.277       .  A
C150        C194   1.443       .  S
O151        C158   1.277       .  A
H152        C385   1.071       .  S
C153        H618   1.071       .  S
C153        O607   1.220       .  S
C153        O168   1.274       .  A
O154        C177   1.274       .  A
O154       Mg363   2.299       .  S
O155       Mg169   2.108       .  S
O156       Mg186   2.332       .  S
C157        O170   1.272       .  A
C157        O162   1.277       .  A
C157        C210   1.443       .  S
C158        O185   1.272       .  A
C158        C189   1.443       .  S
Mg159       O166   2.135       .  S
Mg159       O607   2.108       .  S
Mg159       O160   2.331       .  S
Mg159       O601   2.299       .  S
Mg159       O628   2.271       .  S
O161        C165   1.274       .  A
O161       Mg599   2.299   1_455  S
O162       Mg169   2.332       .  S
O163        C182   1.272       .  A
O163       Mg589   2.271       .  S
O164        C184   1.277       .  A
O164       Mg180   2.332       .  S
C165        H372   1.071       .  S
C165        O364   1.220       .  S
O166       Mg180   2.108       .  S
O166        C177   1.220       .  S
O167       Mg186   2.135       .  S
O167       Mg599   2.108   1_455  S
O167        C593   1.220       .  S
O168       Mg180   2.299       .  S
Mg169       O185   2.271       .  S
O170       Mg406   2.270   1_545  S
H171        C616   1.071       .  S
O172       Mg180   2.135       .  S
O172       Mg363   2.109       .  S
O172        C395   1.220       .  S
H173        C395   1.071       .  S
H174        C177   1.071       .  S
C175        H393   1.071       .  S
C175        O392   1.220       .  S
C176        H611   1.071       .  S
C176        O581   1.220       .  S
H178        C593   1.071       .  S
O179       Mg406   2.299   1_545  S
C182        O187   1.277       .  A
C182        C206   1.443       .  S
O183        C184   1.272       .  A
O183       Mg363   2.270       .  S
C184        C192   1.443       .  S
Mg186       O364   2.109       .  S
Mg186       O390   2.270       .  S
Mg186       O399   2.299       .  S
O188       Mg599   2.271   1_455  S
C189        C190   1.210       .  T
C191        C192   1.210       .  T
C193        C194   1.210       .  T
C195        C196   1.210       .  T
C197        C198   1.210       .  T
C199        C200   1.210       .  T
C201        C202   1.236       .  T
C203        C204   1.236       .  T
C205        C206   1.210       .  T
C207        C208   1.210       .  T
C209        C210   1.210       .  T
C211        C212   1.210       .  T
C213        C214   1.210       .  T
C215        C216   1.210       .  T
C217        C218   1.236       .  T
C219        C220   1.236       .  T
C221        C223   1.547       .  S
C221        C225   1.547       .  S
C221        C224   1.547       .  S
C221        C440   1.522       .  S
C222        C226   1.536   1_556  S
C222        C228   1.536   1_556  S
C222        C227   1.536   1_556  S
C222        C437   1.522       .  S
C223        C231   1.384       .  A
C223        C226   1.406       .  A
C224        C235   1.384       .  A
C224        C227   1.406       .  A
C225        C239   1.384       .  A
C225        C228   1.406       .  A
C226        C229   1.374       .  A
C227        C233   1.374       .  A
C228        C236   1.374       .  A
C229        N230   1.355       .  A
C229        H242   1.083   1_554  S
N230        C231   1.361       .  A
N230        C432   1.407       .  S
C231        H232   1.083       .  S
C233        N234   1.355       .  A
C233        H243   1.083   1_554  S
N234        C235   1.361       .  A
N234        C435   1.407       .  S
C235        H241   1.083       .  S
C236        N237   1.355       .  A
C236        H238   1.083   1_554  S
N237        C239   1.361       .  A
N237        C433   1.407       .  S
C239        H240   1.083       .  S
C244        C246   1.536       .  S
C244        C248   1.536       .  S
C244        C247   1.536       .  S
C244        C439   1.522       .  S
C245        C249   1.547       .  S
C245        C251   1.547       .  S
C245        C250   1.547       .  S
C245        C438   1.522       .  S
C246        C254   1.374       .  A
C246        C249   1.406       .  A
C247        C258   1.374       .  A
C247        C250   1.406       .  A
C248        C262   1.374       .  A
C248        C251   1.406       .  A
C249        C252   1.384       .  A
C250        C256   1.384       .  A
C251        C259   1.384       .  A
C252        N253   1.361       .  A
C252        H265   1.083       .  S
N253        C254   1.355       .  A
N253        C425   1.407       .  S
C254        H255   1.083       .  S
C256        N257   1.361       .  A
C256        H266   1.083       .  S
N257        C258   1.355       .  A
N257        C428   1.407       .  S
C258        H264   1.083       .  S
C259        N260   1.361       .  A
C259        H261   1.083       .  S
N260        C262   1.355       .  A
N260        C429   1.407       .  S
C262        H263   1.083       .  S
C267        C269   1.536   1_554  S
C267        C271   1.536   1_554  S
C267        C270   1.536   1_554  S
C267        C423   1.522       .  S
C268        C272   1.547       .  S
C268        C274   1.547       .  S
C268        C273   1.547       .  S
C268        C422   1.522       .  S
C269        C277   1.374       .  A
C269        C272   1.406       .  A
C270        C281   1.374       .  A
C270        C273   1.406       .  A
C271        C285   1.374       .  A
C271        C274   1.406       .  A
C272        C275   1.384       .  A
C273        C279   1.384       .  A
C274        C282   1.384       .  A
C275        N276   1.361       .  A
C275        H288   1.083       .  S
N276        C277   1.355       .  A
N276        C420   1.407       .  S
C277        H278   1.083   1_556  S
C279        N280   1.361       .  A
C279        H289   1.083       .  S
N280        C281   1.355       .  A
N280        C417   1.407       .  S
C281        H287   1.083   1_556  S
C282        N283   1.361       .  A
C282        H284   1.083       .  S
N283        C285   1.355       .  A
N283        C415   1.407       .  S
C285        H286   1.083   1_556  S
C290        C292   1.547       .  S
C290        C294   1.547       .  S
C290        C293   1.547       .  S
C290        C424   1.522       .  S
C291        C295   1.536       .  S
C291        C297   1.536       .  S
C291        C296   1.536       .  S
C291        C421   1.522       .  S
C292        C300   1.384       .  A
C292        C295   1.406       .  A
C293        C304   1.384       .  A
C293        C296   1.406       .  A
C294        C308   1.384       .  A
C294        C297   1.406       .  A
C295        C298   1.374       .  A
C296        C302   1.374       .  A
C297        C305   1.374       .  A
C298        N299   1.355       .  A
C298        H311   1.083       .  S
N299        C300   1.361       .  A
N299        C413   1.407       .  S
C300        H301   1.082       .  S
C302        N303   1.355       .  A
C302        H312   1.083       .  S
N303        C304   1.361       .  A
N303        C410   1.407       .  S
C304        H310   1.083       .  S
C305        N306   1.355       .  A
C305        H307   1.083       .  S
N306        C308   1.361       .  A
N306        C411   1.407       .  S
C308        H309   1.083       .  S
O313       Mg315   2.134       .  S
C314        H353   1.071       .  S
C314        O327   1.220       .  S
C314        O351   1.274       .  A
Mg315       O784   2.109   1_454  S
Mg315       O359   2.332   1_554  S
Mg315       O795   2.270   1_455  S
Mg315       O766   2.299   1_455  S
O316       Mg798   2.109   1_454  S
O316       Mg341   2.135       .  S
O316        C777   1.220       .  S
O317        C348   1.274       .  A
O317       Mg341   2.299       .  S
C318        O320   1.272       .  A
C318        O332   1.277       .  A
C318        C418   1.443       .  S
O319        C347   1.274   1_455  A
O320       Mg352   2.271       .  S
Mg321       O327   2.135       .  S
Mg321       O323   2.331   1_556  S
C322        O360   1.272       .  A
C322        O328   1.277       .  A
C322        C431   1.443       .  S
O323        C330   1.277       .  A
H324        C777   1.071       .  S
C325        O340   1.274   1_545  A
O326        C349   1.274       .  A
O326       Mg755   2.299       .  S
O327       Mg341   2.108   1_556  S
O328       Mg358   2.332   1_554  S
C329        O342   1.272       .  A
C329        O334   1.277       .  A
C329        C416   1.443       .  S
C330        O357   1.272       .  A
C330        C436   1.443       .  S
Mg331       O338   2.135       .  S
Mg331       O332   2.331   1_554  S
O333        C337   1.274       .  A
O334       Mg341   2.332   1_556  S
O335        C354   1.272       .  A
O336        C356   1.277       .  A
O336       Mg352   2.332   1_554  S
C337        H764   1.071       .  S
C337        O756   1.220       .  S
O338       Mg352   2.108   1_554  S
O338        C349   1.220       .  S
O339       Mg358   2.134       .  S
O340       Mg352   2.299       .  S
Mg341       O357   2.271       .  S
O342       Mg798   2.270   1_455  S
O344       Mg755   2.109   1_556  S
O344       Mg352   2.135       .  S
O344        C787   1.220       .  S
H345        C787   1.071       .  S
H346        C349   1.071       .  S
C347        H785   1.071       .  S
C347        O784   1.220       .  S
O351       Mg798   2.299   1_455  S
C354        O359   1.277       .  A
C354        C419   1.443       .  S
O355        C356   1.272       .  A
O355       Mg755   2.270       .  S
C356        C434   1.443       .  S
Mg358       O756   2.109   1_556  S
Mg358       O782   2.270       .  S
Mg358       O791   2.299       .  S
O361       Mg363   2.135       .  S
O361       Mg809   2.108       .  S
O361        C836   1.220       .  S
C362        H401   1.071       .  S
C362        O375   1.220       .  S
C362        O399   1.274       .  A
Mg363       O407   2.332       .  S
O364       Mg389   2.135       .  S
O365        C396   1.274   1_455  A
O365       Mg389   2.299       .  S
C366        O368   1.272       .  A
C366        O380   1.277       .  A
C366        C427   1.443       .  S
O367        C395   1.274       .  A
O367       Mg809   2.299       .  S
O368       Mg400   2.271       .  S
Mg369       O801   2.108   1_455  S
Mg369       O375   2.135       .  S
Mg369       O807   2.299   1_455  S
Mg369       O823   2.271   1_455  S
Mg369       O371   2.331       .  S
C370        O408   1.272       .  A
C370        O376   1.277       .  A
C370        C414   1.443       .  S
O371        C378   1.277       .  A
C373        H838   1.071       .  S
C373        O827   1.220       .  S
C373        O388   1.274       .  A
O374        C397   1.274       .  A
O375       Mg389   2.108       .  S
O376       Mg406   2.332       .  S
C377        O390   1.272       .  A
C377        O382   1.277       .  A
C377        C430   1.443       .  S
C378        O405   1.272       .  A
C378        C409   1.443       .  S
Mg379       O386   2.135       .  S
Mg379       O827   2.108       .  S
Mg379       O380   2.331       .  S
Mg379       O821   2.299       .  S
Mg379       O848   2.271       .  S
O381        C385   1.274   1_565  A
O381       Mg819   2.299   1_455  S
O382       Mg389   2.332       .  S
O383        C402   1.272       .  A
O383       Mg809   2.271       .  S
O384        C404   1.277       .  A
O384       Mg400   2.332       .  S
O386       Mg400   2.108       .  S
O386        C397   1.220       .  S
O387       Mg819   2.108   1_455  S
O387       Mg406   2.135       .  S
O387        C813   1.220       .  S
O388       Mg400   2.299       .  S
Mg389       O405   2.271       .  S
H391        C836   1.071       .  S
O392       Mg400   2.135       .  S
H394        C397   1.071       .  S
C396        H831   1.071       .  S
C396        O801   1.220       .  S
H398        C813   1.071       .  S
C402        O407   1.277       .  A
C402        C426   1.443       .  S
O403        C404   1.272       .  A
C404        C412   1.443       .  S
O408       Mg819   2.271   1_455  S
C409        C410   1.210       .  T
C411        C412   1.210       .  T
C413        C414   1.210       .  T
C415        C416   1.210       .  T
C417        C418   1.210       .  T
C419        C420   1.210       .  T
C421        C422   1.236       .  T
C423        C424   1.236       .  T
C425        C426   1.210       .  T
C427        C428   1.210       .  T
C429        C430   1.210       .  T
C431        C432   1.210       .  T
C433        C434   1.210       .  T
C435        C436   1.210       .  T
C437        C438   1.236       .  T
C439        C440   1.236       .  T
C441        C443   1.547       .  S
C441        C445   1.547       .  S
C441        C444   1.547       .  S
C441        C660   1.522       .  S
C442        C446   1.536   1_556  S
C442        C448   1.536   1_556  S
C442        C447   1.536   1_556  S
C442        C657   1.522       .  S
C443        C451   1.384       .  A
C443        C446   1.406       .  A
C444        C455   1.384       .  A
C444        C447   1.406       .  A
C445        C459   1.384       .  A
C445        C448   1.406       .  A
C446        C449   1.374       .  A
C447        C453   1.374       .  A
C448        C456   1.374       .  A
C449        N450   1.355       .  A
C449        H462   1.083   1_554  S
N450        C451   1.361       .  A
N450        C652   1.407       .  S
C451        H452   1.083       .  S
C453        N454   1.355       .  A
C453        H463   1.083   1_554  S
N454        C455   1.361       .  A
N454        C655   1.407       .  S
C455        H461   1.083       .  S
C456        N457   1.355       .  A
C456        H458   1.083   1_554  S
N457        C459   1.361       .  A
N457        C653   1.407       .  S
C459        H460   1.083       .  S
C464        C466   1.536       .  S
C464        C468   1.536       .  S
C464        C467   1.536       .  S
C464        C659   1.522       .  S
C465        C469   1.547       .  S
C465        C471   1.547       .  S
C465        C470   1.547       .  S
C465        C658   1.522       .  S
C466        C474   1.374       .  A
C466        C469   1.406       .  A
C467        C478   1.374       .  A
C467        C470   1.406       .  A
C468        C482   1.374       .  A
C468        C471   1.406       .  A
C469        C472   1.384       .  A
C470        C476   1.384       .  A
C471        C479   1.384       .  A
C472        N473   1.361       .  A
C472        H485   1.083       .  S
N473        C474   1.355       .  A
N473        C645   1.407       .  S
C474        H475   1.083       .  S
C476        N477   1.361       .  A
C476        H486   1.083       .  S
N477        C478   1.355       .  A
N477        C648   1.407       .  S
C478        H484   1.083       .  S
C479        N480   1.361       .  A
C479        H481   1.083       .  S
N480        C482   1.355       .  A
N480        C649   1.407       .  S
C482        H483   1.083       .  S
C487        C489   1.536   1_554  S
C487        C491   1.536   1_554  S
C487        C490   1.536   1_554  S
C487        C643   1.522       .  S
C488        C492   1.547       .  S
C488        C494   1.547       .  S
C488        C493   1.547       .  S
C488        C642   1.522       .  S
C489        C497   1.374       .  A
C489        C492   1.406       .  A
C490        C501   1.374       .  A
C490        C493   1.406       .  A
C491        C505   1.374       .  A
C491        C494   1.406       .  A
C492        C495   1.384       .  A
C493        C499   1.384       .  A
C494        C502   1.384       .  A
C495        N496   1.361       .  A
C495        H508   1.083       .  S
N496        C497   1.355       .  A
N496        C640   1.407       .  S
C497        H498   1.083   1_556  S
C499        N500   1.361       .  A
C499        H509   1.083       .  S
N500        C501   1.355       .  A
N500        C637   1.407       .  S
C501        H507   1.083   1_556  S
C502        N503   1.361       .  A
C502        H504   1.083       .  S
N503        C505   1.355       .  A
N503        C635   1.407       .  S
C505        H506   1.083   1_556  S
C510        C512   1.547       .  S
C510        C514   1.547       .  S
C510        C513   1.547       .  S
C510        C644   1.522       .  S
C511        C515   1.536       .  S
C511        C517   1.536       .  S
C511        C516   1.536       .  S
C511        C641   1.522       .  S
C512        C520   1.384       .  A
C512        C515   1.406       .  A
C513        C524   1.384       .  A
C513        C516   1.406       .  A
C514        C528   1.384       .  A
C514        C517   1.406       .  A
C515        C518   1.374       .  A
C516        C522   1.374       .  A
C517        C525   1.374       .  A
C518        N519   1.355       .  A
C518        H531   1.083       .  S
N519        C520   1.361       .  A
N519        C633   1.407       .  S
C520        H521   1.083       .  S
C522        N523   1.355       .  A
C522        H532   1.083       .  S
N523        C524   1.361       .  A
N523        C630   1.407       .  S
C524        H530   1.083       .  S
C525        N526   1.355       .  A
C525        H527   1.083       .  S
N526        C528   1.361       .  A
N526        C631   1.407       .  S
C528        H529   1.083       .  S
O533       Mg535   2.134       .  S
O533       Mg761   2.108   1_554  S
O533        C788   1.220       .  S
C534        H573   1.071       .  S
C534        O547   1.220       .  S
C534        O571   1.274       .  A
Mg535       O579   2.332   1_554  S
O536       Mg561   2.135       .  S
O537        C568   1.274   1_545  A
O537       Mg561   2.299       .  S
C538        O540   1.272       .  A
C538        O552   1.277       .  A
C538        C638   1.443       .  S
O539        C567   1.274       .  A
O539       Mg761   2.299       .  S
O540       Mg572   2.271       .  S
Mg541       O753   2.108   1_546  S
Mg541       O547   2.135       .  S
Mg541       O759   2.299   1_545  S
Mg541       O775   2.271   1_545  S
Mg541       O543   2.331   1_556  S
C542        O580   1.272       .  A
C542        O548   1.277       .  A
C542        C651   1.443       .  S
O543        C550   1.277       .  A
C545        H790   1.071       .  S
C545        O779   1.220       .  S
C545        O560   1.274       .  A
O546        C569   1.274       .  A
O547       Mg561   2.108   1_556  S
O548       Mg578   2.332   1_554  S
C549        O562   1.272       .  A
C549        O554   1.277       .  A
C549        C636   1.443       .  S
C550        O577   1.272       .  A
C550        C656   1.443       .  S
Mg551       O558   2.135       .  S
Mg551       O779   2.108   1_554  S
Mg551       O552   2.331   1_554  S
Mg551       O773   2.299       .  S
Mg551       O800   2.271       .  S
O553        C557   1.274   1_655  A
O553       Mg771   2.299   1_545  S
O554       Mg561   2.332   1_556  S
O555        C574   1.272       .  A
O555       Mg761   2.271       .  S
O556        C576   1.277       .  A
O556       Mg572   2.332   1_554  S
O558       Mg572   2.108   1_554  S
O558        C569   1.220       .  S
O559       Mg771   2.108   1_546  S
O559       Mg578   2.134       .  S
O559        C765   1.220       .  S
O560       Mg572   2.299       .  S
Mg561       O577   2.271       .  S
H563        C788   1.071       .  S
O564       Mg572   2.135       .  S
H566        C569   1.071       .  S
C568        H783   1.071       .  S
C568        O753   1.220       .  S
H570        C765   1.071       .  S
C574        O579   1.277       .  A
C574        C639   1.443       .  S
O575        C576   1.272       .  A
C576        C654   1.443       .  S
O580       Mg771   2.271   1_545  S
O581       Mg583   2.135       .  S
C582        H621   1.071       .  S
C582        O595   1.220       .  S
C582        O619   1.274       .  A
Mg583       O832   2.109   1_545  S
Mg583       O627   2.332       .  S
Mg583       O843   2.270   1_545  S
Mg583       O814   2.299   1_545  S
O584       Mg846   2.109   1_545  S
O584       Mg609   2.135       .  S
O584        C825   1.220       .  S
O585        C616   1.274       .  A
O585       Mg609   2.299       .  S
C586        O588   1.272       .  A
C586        O600   1.277       .  A
C586        C647   1.443       .  S
O587        C615   1.274   1_545  A
O588       Mg620   2.271       .  S
Mg589       O595   2.135       .  S
Mg589       O591   2.331       .  S
C590        O628   1.272       .  A
C590        O596   1.277       .  A
C590        C634   1.443       .  S
O591        C598   1.277       .  A
H592        C825   1.071       .  S
C593        O608   1.274   1_455  A
O594        C617   1.274       .  A
O594       Mg803   2.299       .  S
O595       Mg609   2.108       .  S
O596       Mg626   2.332       .  S
C597        O610   1.272       .  A
C597        O602   1.277       .  A
C597        C650   1.443       .  S
C598        O625   1.272       .  A
C598        C629   1.443       .  S
Mg599       O606   2.135       .  S
Mg599       O600   2.331       .  S
O601        C605   1.274       .  A
O602       Mg609   2.332       .  S
O603        C622   1.272       .  A
O604        C624   1.277       .  A
O604       Mg620   2.332       .  S
C605        H812   1.071       .  S
C605        O804   1.220       .  S
O606       Mg620   2.108       .  S
O606        C617   1.220       .  S
O607       Mg626   2.135       .  S
O608       Mg620   2.299       .  S
Mg609       O625   2.271       .  S
O610       Mg846   2.270   1_545  S
O612       Mg803   2.109       .  S
O612       Mg620   2.135       .  S
O612        C835   1.220       .  S
H613        C835   1.071       .  S
H614        C617   1.071       .  S
C615        H833   1.071       .  S
C615        O832   1.220       .  S
O619       Mg846   2.299   1_545  S
C622        O627   1.277       .  A
C622        C646   1.443       .  S
O623        C624   1.272       .  A
O623       Mg803   2.270       .  S
C624        C632   1.443       .  S
Mg626       O804   2.109       .  S
Mg626       O830   2.270       .  S
Mg626       O839   2.299       .  S
C629        C630   1.210       .  T
C631        C632   1.210       .  T
C633        C634   1.210       .  T
C635        C636   1.210       .  T
C637        C638   1.210       .  T
C639        C640   1.210       .  T
C641        C642   1.236       .  T
C643        C644   1.236       .  T
C645        C646   1.210       .  T
C647        C648   1.210       .  T
C649        C650   1.210       .  T
C651        C652   1.210       .  T
C653        C654   1.210       .  T
C655        C656   1.210       .  T
C657        C658   1.236       .  T
C659        C660   1.236       .  T
C661        C663   1.547       .  S
C661        C665   1.547       .  S
C661        C664   1.547       .  S
C661        C880   1.522       .  S
C662        C666   1.536   1_556  S
C662        C668   1.536   1_556  S
C662        C667   1.536   1_556  S
C662        C877   1.522       .  S
C663        C671   1.384       .  A
C663        C666   1.406       .  A
C664        C675   1.384       .  A
C664        C667   1.406       .  A
C665        C679   1.384       .  A
C665        C668   1.406       .  A
C666        C669   1.374       .  A
C667        C673   1.374       .  A
C668        C676   1.374       .  A
C669        N670   1.355       .  A
C669        H682   1.083   1_554  S
N670        C671   1.361       .  A
N670        C872   1.407       .  S
C671        H672   1.083       .  S
C673        N674   1.355       .  A
C673        H683   1.083   1_554  S
N674        C675   1.361       .  A
N674        C875   1.407       .  S
C675        H681   1.083       .  S
C676        N677   1.355       .  A
C676        H678   1.083   1_554  S
N677        C679   1.361       .  A
N677        C873   1.407       .  S
C679        H680   1.083       .  S
C684        C686   1.536       .  S
C684        C688   1.536       .  S
C684        C687   1.536       .  S
C684        C879   1.522       .  S
C685        C689   1.547       .  S
C685        C691   1.547       .  S
C685        C690   1.547       .  S
C685        C878   1.522       .  S
C686        C694   1.374       .  A
C686        C689   1.406       .  A
C687        C698   1.374       .  A
C687        C690   1.406       .  A
C688        C702   1.374       .  A
C688        C691   1.406       .  A
C689        C692   1.384       .  A
C690        C696   1.384       .  A
C691        C699   1.384       .  A
C692        N693   1.361       .  A
C692        H705   1.082       .  S
N693        C694   1.355       .  A
N693        C865   1.407       .  S
C694        H695   1.083       .  S
C696        N697   1.361       .  A
C696        H706   1.083       .  S
N697        C698   1.355       .  A
N697        C868   1.407       .  S
C698        H704   1.083       .  S
C699        N700   1.361       .  A
C699        H701   1.083       .  S
N700        C702   1.355       .  A
N700        C869   1.407       .  S
C702        H703   1.083       .  S
C707        C709   1.536   1_554  S
C707        C711   1.536   1_554  S
C707        C710   1.536   1_554  S
C707        C863   1.522       .  S
C708        C712   1.547       .  S
C708        C714   1.547       .  S
C708        C713   1.547       .  S
C708        C862   1.522       .  S
C709        C717   1.374       .  A
C709        C712   1.406       .  A
C710        C721   1.374       .  A
C710        C713   1.406       .  A
C711        C725   1.374       .  A
C711        C714   1.406       .  A
C712        C715   1.384       .  A
C713        C719   1.384       .  A
C714        C722   1.384       .  A
C715        N716   1.361       .  A
C715        H728   1.083       .  S
N716        C717   1.355       .  A
N716        C860   1.407       .  S
C717        H718   1.083   1_556  S
C719        N720   1.361       .  A
C719        H729   1.083       .  S
N720        C721   1.355       .  A
N720        C857   1.407       .  S
C721        H727   1.083   1_556  S
C722        N723   1.361       .  A
C722        H724   1.083       .  S
N723        C725   1.355       .  A
N723        C855   1.407       .  S
C725        H726   1.083   1_556  S
C730        C732   1.547       .  S
C730        C734   1.547       .  S
C730        C733   1.547       .  S
C730        C864   1.522       .  S
C731        C735   1.536       .  S
C731        C737   1.536       .  S
C731        C736   1.536       .  S
C731        C861   1.522       .  S
C732        C740   1.384       .  A
C732        C735   1.406       .  A
C733        C744   1.384       .  A
C733        C736   1.406       .  A
C734        C748   1.384       .  A
C734        C737   1.406       .  A
C735        C738   1.374       .  A
C736        C742   1.374       .  A
C737        C745   1.374       .  A
C738        N739   1.355       .  A
C738        H751   1.083       .  S
N739        C740   1.361       .  A
N739        C853   1.407       .  S
C740        H741   1.083       .  S
C742        N743   1.355       .  A
C742        H752   1.083       .  S
N743        C744   1.361       .  A
N743        C850   1.407       .  S
C744        H750   1.083       .  S
C745        N746   1.355       .  A
C745        H747   1.083       .  S
N746        C748   1.361       .  A
N746        C851   1.407       .  S
C748        H749   1.083       .  S
O753       Mg755   2.134       .  S
C754        H793   1.071       .  S
C754        O767   1.220       .  S
C754        O791   1.274       .  A
Mg755       O799   2.332   1_554  S
O756       Mg781   2.135       .  S
O757        C788   1.274       .  A
O757       Mg781   2.299       .  S
C758        O760   1.272       .  A
C758        O772   1.277       .  A
C758        C858   1.443       .  S
O759        C787   1.274       .  A
O760       Mg792   2.271       .  S
Mg761       O767   2.135       .  S
Mg761       O763   2.331   1_556  S
C762        O800   1.272       .  A
C762        O768   1.277       .  A
C762        C871   1.443       .  S
O763        C770   1.277       .  A
C765        O780   1.274   1_545  A
O766        C789   1.274       .  A
O767       Mg781   2.108   1_556  S
O768       Mg798   2.332   1_554  S
C769        O782   1.272       .  A
C769        O774   1.277       .  A
C769        C856   1.443       .  S
C770        O797   1.272       .  A
C770        C876   1.443       .  S
Mg771       O778   2.135       .  S
Mg771       O772   2.331   1_554  S
O773        C777   1.274   1_655  A
O774       Mg781   2.332   1_556  S
O775        C794   1.272       .  A
O776        C796   1.277       .  A
O776       Mg792   2.332   1_554  S
O778       Mg792   2.108   1_554  S
O778        C789   1.220       .  S
O779       Mg798   2.134       .  S
O780       Mg792   2.299       .  S
Mg781       O797   2.271       .  S
O784       Mg792   2.135       .  S
H786        C789   1.071       .  S
C794        O799   1.277       .  A
C794        C859   1.443       .  S
O795        C796   1.272       .  A
C796        C874   1.443       .  S
O801       Mg803   2.135       .  S
C802        H841   1.071       .  S
C802        O815   1.220       .  S
C802        O839   1.274       .  A
Mg803       O847   2.332       .  S
O804       Mg829   2.135       .  S
O805        C836   1.274       .  A
O805       Mg829   2.299       .  S
C806        O808   1.272       .  A
C806        O820   1.277       .  A
C806        C867   1.443       .  S
O807        C835   1.274       .  A
O808       Mg840   2.271       .  S
Mg809       O815   2.135       .  S
Mg809       O811   2.331       .  S
C810        O848   1.272       .  A
C810        O816   1.277       .  A
C810        C854   1.443       .  S
O811        C818   1.277       .  A
C813        O828   1.274   1_455  A
O814        C837   1.274       .  A
O815       Mg829   2.108       .  S
O816       Mg846   2.332       .  S
C817        O830   1.272       .  A
C817        O822   1.277       .  A
C817        C870   1.443       .  S
C818        O845   1.272       .  A
C818        C849   1.443       .  S
Mg819       O826   2.135       .  S
Mg819       O820   2.331       .  S
O821        C825   1.274   1_565  A
O822       Mg829   2.332       .  S
O823        C842   1.272       .  A
O824        C844   1.277       .  A
O824       Mg840   2.332       .  S
O826       Mg840   2.108       .  S
O826        C837   1.220       .  S
O827       Mg846   2.135       .  S
O828       Mg840   2.299       .  S
Mg829       O845   2.271       .  S
O832       Mg840   2.135       .  S
H834        C837   1.071       .  S
C842        O847   1.277       .  A
C842        C866   1.443       .  S
O843        C844   1.272       .  A
C844        C852   1.443       .  S
C849        C850   1.210       .  T
C851        C852   1.210       .  T
C853        C854   1.210       .  T
C855        C856   1.210       .  T
C857        C858   1.210       .  T
C859        C860   1.210       .  T
C861        C862   1.236       .  T
C863        C864   1.236       .  T
C865        C866   1.210       .  T
C867        C868   1.210       .  T
C869        C870   1.210       .  T
C871        C872   1.210       .  T
C873        C874   1.210       .  T
C875        C876   1.210       .  T
C877        C878   1.236       .  T
C879        C880   1.236       .  T
