geometry optimzed in LAMMPS
_audit_creation_date              2020-12-01 
_audit_creation_method            'lammps2cif' 
_symmetry_space_group_name_H-M    'P1' 
_symmetry_Int_Tables_number       1 
_symmetry_cell_setting            triclinic 
loop_ 
_symmetry_equiv_pos_as_xyz 
  x,y,z 
_cell_length_a                    50.65411456 
_cell_length_b                    50.35499604416902 
_cell_length_c                    17.28859364603823 
_cell_angle_alpha                 88.57777124314521 
_cell_angle_beta                  91.70276887837005 
_cell_angle_gamma                 119.01915241853736 
loop_ 
_atom_site_label 
_atom_site_type_symbol 
_atom_site_fract_x 
_atom_site_fract_y 
_atom_site_fract_z 
_atom_site_charge 
C1          C  0.33058767  0.16681894  0.14506370     0.30100
C2          C  0.33027514  0.16737272  0.98607235     0.30100
C3          C  0.34713080  0.15169923  0.10770855    -0.06100
C4          C  0.29959742  0.15173878  0.10447763    -0.06900
C5          C  0.34671142  0.19853056  0.10566307    -0.06800
C6          C  0.34668500  0.15158881  0.02679622    -0.06100
C7          C  0.29945384  0.15201867  0.02437594    -0.06900
C8          C  0.34688862  0.19871482  0.02479371    -0.06800
C9          C  0.36439655  0.13918573  0.00542097    -0.32200
N10         N  0.37503078  0.13160762  0.07041170     0.14300
C11         C  0.36516385  0.13960493  0.13300897    -0.32200
H12         H  0.37104061  0.13702562  0.19232185     0.16300
C13         C  0.26977982  0.13682175  0.99954859    -0.31100
N14         N  0.25200652  0.12687792  0.06263669     0.13100
C15         C  0.26998570  0.13624143  0.12710707    -0.31100
C16         C  0.36671407  0.22796227  0.00130363    -0.31400
N17         N  0.37797191  0.24554340  0.06494455     0.13600
H18         H  0.37268205  0.23587820  0.94241977     0.16200
C19         C  0.36631736  0.22784090  0.12877418    -0.31400
H20         H  0.37255858  0.23573453  0.18758147     0.16200
H21         H  0.26207550  0.13165820  0.18596051     0.16200
H22         H  0.36944108  0.13592437  0.94718438     0.16300
H23         H  0.26173468  0.13357462  0.93998961     0.16200
C24         C  0.33026918  0.16785277  0.48605667     0.30100
C25         C  0.32981761  0.16591466  0.64509007     0.30100
C26         C  0.34662936  0.15189008  0.52598833    -0.06100
C27         C  0.34649082  0.19883853  0.52649322    -0.06900
C28         C  0.29925808  0.15216091  0.52335622    -0.06800
C29         C  0.34669755  0.15120132  0.60691582    -0.06100
C30         C  0.34590769  0.19797194  0.60732991    -0.06900
C31         C  0.29900211  0.15114343  0.60352384    -0.06800
C32         C  0.36567035  0.13997383  0.63111706    -0.32200
N33         N  0.37622505  0.13308033  0.56776739     0.14300
C34         C  0.36552316  0.14101153  0.50353855    -0.32200
H35         H  0.37161843  0.13942285  0.44506122     0.16300
C36         C  0.36290878  0.22760285  0.63188093    -0.31100
N37         N  0.37349399  0.24601884  0.56885706     0.13100
C38         C  0.36420038  0.22873047  0.50449412    -0.31100
C39         C  0.26924812  0.13585807  0.62508307    -0.31400
N40         N  0.25162807  0.12796335  0.55995806     0.13600
H41         H  0.26097933  0.13062706  0.68359101     0.16200
C42         C  0.26969573  0.13757694  0.49744623    -0.31400
H43         H  0.26188577  0.13368610  0.43774399     0.16200
H44         H  0.36990072  0.23743151  0.44606604     0.16200
H45         H  0.37199150  0.13762957  0.69015993     0.16300
H46         H  0.36785804  0.23542703  0.69096648     0.16200
C47         C  0.16859925  0.33440626  0.01363897     0.30100
C48         C  0.16775296  0.33329283  0.85515634     0.30100
C49         C  0.15881070  0.35592821  0.97208798    -0.06100
C50         C  0.19853494  0.34292516  0.97552254    -0.06900
C51         C  0.14625955  0.30384953  0.97652573    -0.06800
C52         C  0.15818044  0.35525302  0.89071707    -0.06100
C53         C  0.19830270  0.34259651  0.89568521    -0.06900
C54         C  0.14579944  0.30312793  0.89595213    -0.06800
C55         C  0.13832361  0.36545353  0.86583679    -0.32200
N56         N  0.12805981  0.37326761  0.92793563     0.14300
C57         C  0.13952720  0.36664526  0.99259557    -0.32200
H58         H  0.13336480  0.36857634  0.05062455     0.16300
C59         C  0.22809648  0.35644504  0.87335495    -0.31100
N60         N  0.24617505  0.36433724  0.93797819     0.13100
C61         C  0.22817966  0.35640820  0.00052000    -0.31100
C62         C  0.12568457  0.27359854  0.87498971    -0.31400
N63         N  0.11446010  0.25651529  0.94021368     0.13600
H64         H  0.12111886  0.26475444  0.81695458     0.16200
C65         C  0.12644254  0.27496705  0.00223072    -0.31400
H66         H  0.12221670  0.26740529  0.06192917     0.16200
H67         H  0.23617537  0.36171027  0.05988939     0.16200
H68         H  0.13033224  0.36548653  0.80710237     0.16300
H69         H  0.23591817  0.36253227  0.81472807     0.16200
C70         C  0.16898528  0.33345484  0.35478226     0.30100
C71         C  0.16848787  0.33238252  0.51360647     0.30100
C72         C  0.14806155  0.34375159  0.39174068    -0.06100
C73         C  0.15739016  0.30171189  0.39358850    -0.06900
C74         C  0.19944919  0.35245084  0.39626403    -0.06800
C75         C  0.14779249  0.34304153  0.47241070    -0.06100
C76         C  0.15721804  0.30119864  0.47476184    -0.06900
C77         C  0.19914733  0.35193286  0.47627644    -0.06800
C78         C  0.12798062  0.35275512  0.49435018    -0.32200
N79         N  0.11671337  0.35991950  0.42988362     0.14300
C80         C  0.12843882  0.35414433  0.36689841    -0.32200
H81         H  0.12338816  0.35779825  0.30763688     0.16300
C82         C  0.13969159  0.27114155  0.49713036    -0.31100
N83         N  0.13049414  0.25361163  0.43330692     0.13100
C84         C  0.13991808  0.27190248  0.36990143    -0.31100
C85         C  0.22856896  0.36904456  0.50224607    -0.31400
N86         N  0.24660317  0.38006337  0.43986224     0.13600
H87         H  0.23639907  0.37253235  0.56196885     0.16200
C88         C  0.22913050  0.36977768  0.37477428    -0.31400
H89         H  0.23748412  0.37422776  0.31632377     0.16200
H90         H  0.13342477  0.26394540  0.31126235     0.16200
H91         H  0.12292511  0.35553900  0.55296097     0.16300
H92         H  0.13273703  0.26243083  0.55507773     0.16200
O93         O  0.04177881  0.48831689  0.05617014    -0.88300
C94         C  0.04383053  0.04845539  0.88579077     0.87800
Mg95       Mg  0.00936264  0.44100486  0.05456417     1.58100
O96         O  0.01133249  0.05191935  0.05994899    -0.88000
O97         O  0.05284936  0.02555411  0.12983626    -0.75300
C98         C  0.37593515  0.43217364  0.97589443     0.92800
O99         O  0.02496522  0.47571105  0.87544930    -0.75100
O100        O  0.39005926  0.41743324  0.96596902    -0.82600
Mg101      Mg  0.06433017  0.00742636  0.94820067     1.58000
C102        C  0.43321776  0.05857707  0.04742163     0.92700
O103        O  0.10862836  0.03902680  0.01387972    -0.80900
H104        H  0.01405385  0.05857999  0.17412611    -0.06300
C105        C  0.45123986  0.50020622  0.89221032     0.87700
O106        O  0.47836951  0.44653371  0.13309330    -0.75400
O107        O  0.04963441  0.04077785  0.94968787    -0.88200
O108        O  0.46033359  0.07200878  0.02401298    -0.81000
C109        C  0.05405614  0.12556104  0.97118797     0.92900
C110        C  0.12229425  0.06597216  0.04039272     0.92700
Mg111      Mg  0.43454244  0.49283036  0.06141516     1.58000
O112        O  0.38972160  0.45973939  0.99810253    -0.80900
O113        O  0.47363217  0.02554672  0.13254627    -0.75200
O114        O  0.06813302  0.11132960  0.99287437    -0.81000
O115        O  0.08120602  0.47162049  0.94727300    -0.82700
O116        O  0.43190258  0.38937569  0.02489386    -0.81000
C117        C  0.50064061  0.04635918  0.12266476     0.87100
O118        O  0.44988976  0.45974345  0.06250961    -0.88200
O119        O  0.46003575  0.01420334  0.95019746    -0.88300
O120        O  0.44466253  0.47279446  0.88141463    -0.75300
Mg121      Mg  0.05851290  0.06620960  0.05466272     1.58000
O122        O  0.02547755  0.11162801  0.96130220    -0.82700
H123        H  0.05019854  0.48632795  0.16929130    -0.06400
O124        O  0.48744740  0.44792066  0.94986150    -0.88000
H125        H  0.48318139  0.44175697  0.83542782    -0.06300
H126        H  0.44577057  0.45383171  0.17723373    -0.06400
C127        C  0.99820012  0.45500300  0.88873655     0.87100
C128        C  0.04687357  0.99843104  0.11741835     0.87700
C129        C  0.45718819  0.45316172  0.12603045     0.87800
H130        H  0.45339464  0.01704757  0.83638376    -0.06400
O131        O  0.02274877  0.05507314  0.87646208    -0.75400
Mg132      Mg  0.44019542  0.43313122  0.95921199     1.58000
H133        H  0.05635079  0.04855251  0.83610606    -0.06400
C134        C  0.06652429  0.44287017  0.95544354     0.92700
O135        O  0.47522907  0.38925209  0.04955651    -0.82700
C136        C  0.44651052  0.37555941  0.04512148     0.92800
O137        O  0.10835845  0.08080931  0.05117500    -0.82700
Mg138      Mg  0.49248039  0.06178700  0.95572805     1.58200
O139        O  0.04003009  0.42971254  0.98289993    -0.81000
O140        O  0.41841892  0.02974620  0.05360770    -0.82700
O141        O  0.48804272  0.04175725  0.44404219    -0.88300
C142        C  0.04758115  0.04524577  0.61331910     0.87800
Mg143      Mg  0.44068120  0.01008949  0.45182171     1.58100
O144        O  0.04934805  0.00953999  0.44257598    -0.88000
O145        O  0.02368752  0.05129901  0.36767276    -0.75300
C146        C  0.43183775  0.37639901  0.54545319     0.92800
O147        O  0.47796806  0.03039543  0.62735851    -0.75100
O148        O  0.41760508  0.39110785  0.55364301    -0.82600
Mg149      Mg  0.00765669  0.06705802  0.54854911     1.58000
C150        C  0.05426194  0.42863517  0.45991774     0.92700
O151        O  0.03947108  0.11046292  0.48074806    -0.80900
H152        H  0.05531518  0.01029749  0.32854316    -0.06300
C153        C  0.50133374  0.45313541  0.61743094     0.87700
O154        O  0.44482040  0.47531551  0.37299620    -0.75400
O155        O  0.03959364  0.05055034  0.54916814    -0.88200
O156        O  0.06941327  0.45629291  0.48104504    -0.81000
C157        C  0.12261648  0.05379481  0.53131189     0.92900
C158        C  0.06609928  0.12318424  0.45430215     0.92700
Mg159      Mg  0.49071934  0.43156510  0.45080259     1.58000
O160        O  0.45871784  0.38946772  0.52060360    -0.80900
O161        O  0.02345687  0.47047503  0.36908836    -0.75200
O162        O  0.10802798  0.06725623  0.50782508    -0.81000
O163        O  0.47580341  0.08635462  0.54466796    -0.82700
O164        O  0.38999580  0.43259400  0.48769411    -0.81000
C165        C  0.04479095  0.49745350  0.37736054     0.87100
O166        O  0.45918612  0.44878823  0.44804943    -0.88200
O167        O  0.01357148  0.46027731  0.55346861    -0.88300
O168        O  0.47461021  0.44807021  0.62902511    -0.75300
Mg169      Mg  0.06406835  0.05743562  0.44398120     1.58000
O170        O  0.10953807  0.02503438  0.53976593    -0.82700
H171        H  0.48448781  0.04644183  0.32961144    -0.06400
O172        O  0.44968156  0.49008245  0.55362317    -0.88000
H173        H  0.44467826  0.48949442  0.66803879    -0.06300
H174        H  0.45090328  0.44090020  0.33473090    -0.06400
C175        C  0.45666206  0.00336848  0.61907458     0.87100
C176        C  0.99709373  0.04622186  0.38067206     0.87700
C177        C  0.45141994  0.45413468  0.38364610     0.87800
H178        H  0.01688476  0.45617123  0.66822372    -0.06400
O179        O  0.05430605  0.02414576  0.62359212    -0.75400
Mg180      Mg  0.43419801  0.44207591  0.55232752     1.58000
H181        H  0.04808329  0.05838551  0.66243160    -0.06400
C182        C  0.44715707  0.07294728  0.53738638     0.92700
O183        O  0.38986530  0.47575731  0.45729214    -0.82700
C184        C  0.37615278  0.44695393  0.46533109     0.92800
O185        O  0.07999940  0.10825719  0.44363723    -0.82700
Mg186      Mg  0.06096277  0.49159714  0.54515006     1.58200
O187        O  0.43214699  0.04524708  0.51621499    -0.81000
O188        O  0.02558453  0.41515471  0.45440246    -0.82700
C189        C  0.08390642  0.20525871  0.41232115    -0.20200
C190        C  0.11457364  0.22096732  0.43351361    -0.06800
C191        C  0.12956481  0.20453726  0.45570675     0.14100
C192        C  0.11335926  0.17269885  0.45888854    -0.20300
C193        C  0.08224112  0.15670115  0.44129994    -0.06800
C194        C  0.06740823  0.17328919  0.41640214     0.14100
C195        C  0.03447389  0.15757961  0.39266201    -0.23600
H196        H  0.07277604  0.21818247  0.39416993     0.15400
H197        H  0.12494524  0.16028129  0.47771745     0.15400
C198        C  0.16281445  0.22079366  0.47561708    -0.23600
H199        H  0.02735958  0.17394661  0.36939547     0.05600
H200        H  0.02024077  0.14589061  0.44322088     0.08800
H201        H  0.03025301  0.14084147  0.34679196     0.08800
H202        H  0.16725442  0.23545316  0.52658371     0.08800
H203        H  0.17559804  0.23507202  0.42565216     0.08800
H204        H  0.17133368  0.20462431  0.48981244     0.05600
C205        C  0.29603722  0.38461957  0.41591311    -0.20200
C206        C  0.27899543  0.39750466  0.44261132    -0.06800
C207        C  0.29386963  0.42714609  0.47249590     0.14100
C208        C  0.32557997  0.44307465  0.47649586    -0.20300
C209        C  0.34283695  0.42979450  0.45287371    -0.06800
C210        C  0.32776075  0.40017572  0.42139956     0.14100
C211        C  0.34480283  0.38495709  0.39222630    -0.23600
H212        H  0.28428812  0.36191509  0.39242759     0.15400
H213        H  0.33692588  0.46571508  0.50046806     0.15400
C214        C  0.27621625  0.44204348  0.49915010    -0.23600
H215        H  0.32942823  0.36287721  0.36465526     0.05600
H216        H  0.35678406  0.38027970  0.44090775     0.08800
H217        H  0.36129718  0.39974871  0.34839074     0.08800
H218        H  0.26201513  0.42917579  0.54877956     0.08800
H219        H  0.26151207  0.44266803  0.45101136     0.08800
H220        H  0.29131953  0.46571559  0.51816034     0.05600
C221        C  0.05615896  0.38020269  0.46874741    -0.20200
C222        C  0.07008624  0.41092219  0.44518267    -0.06800
C223        C  0.09863138  0.42374224  0.40978346     0.14100
C224        C  0.11292458  0.40596239  0.40221650    -0.20300
C225        C  0.09963590  0.37589820  0.42987158    -0.06800
C226        C  0.07068544  0.36267205  0.46196824     0.14100
C227        C  0.05502459  0.32993436  0.48812366    -0.23600
H228        H  0.03412474  0.37005800  0.49482043     0.15400
H229        H  0.13507186  0.41579981  0.37693716     0.15400
C230        C  0.11392229  0.45585417  0.37860631    -0.23600
H231        H  0.03190371  0.32270723  0.50858263     0.05600
H232        H  0.06792295  0.32646526  0.53654816     0.08800
H233        H  0.05315817  0.31520478  0.43919081     0.08800
H234        H  0.12010007  0.47216987  0.42660710     0.08800
H235        H  0.09858339  0.45897456  0.33666154     0.08800
H236        H  0.13500884  0.46131600  0.34821617     0.05600
C237        C  0.11331885  0.20978405  0.98728309    -0.20200
C238        C  0.09939137  0.22377521  0.94467670    -0.06800
C239        C  0.07109485  0.20550893  0.90845565     0.14100
C240        C  0.05723055  0.17365467  0.91673517    -0.20300
C241        C  0.07106896  0.15939227  0.95983542    -0.06800
C242        C  0.09983516  0.17805350  0.99512090     0.14100
C243        C  0.11652516  0.16520432  0.04277226    -0.23600
H244        H  0.13514077  0.22402549  0.01447619     0.15400
H245        H  0.03529242  0.15983754  0.88962841     0.15400
C246        C  0.05501541  0.21959331  0.86352884    -0.23600
H247        H  0.13810281  0.18332172  0.06752201     0.05600
H248        H  0.12218957  0.15101858  0.00587335     0.08800
H249        H  0.10250539  0.15148871  0.09187352     0.08800
H250        H  0.06827793  0.23217336  0.81239629     0.08800
H251        H  0.05194710  0.23543171  0.90104272     0.08800
H252        H  0.03239044  0.20214634  0.84232261     0.05600
C253        C  0.29182666  0.40766263  0.98990370    -0.20200
C254        C  0.27867449  0.38234257  0.94149930    -0.06800
C255        C  0.29760784  0.37388884  0.90281324     0.14100
C256        C  0.32914266  0.39101287  0.91367433    -0.20300
C257        C  0.34243895  0.41635907  0.96271931    -0.06800
C258        C  0.32321820  0.42460860  0.00159634     0.14100
C259        C  0.33520764  0.45045513  0.05785132    -0.23600
H260        H  0.27718675  0.41392957  0.01982298     0.15400
H261        H  0.34350873  0.38425601  0.88421702     0.15400
C262        C  0.28468410  0.34599788  0.85329359    -0.23600
H263        H  0.31678763  0.45250148  0.08563620     0.05600
H264        H  0.34929028  0.47210906  0.02664334     0.08800
H265        H  0.34871492  0.44684772  0.10455338     0.08800
H266        H  0.27293525  0.34905452  0.80158780     0.08800
H267        H  0.26858942  0.32588066  0.88724318     0.08800
H268        H  0.30259173  0.34139053  0.83247041     0.05600
C269        C  0.06863110  0.39460432  0.97166466    -0.20200
C270        C  0.08089959  0.42389677  0.93796841    -0.06800
C271        C  0.10698289  0.43432695  0.89210490     0.14100
C272        C  0.12116395  0.41637411  0.88682922    -0.20300
C273        C  0.11015548  0.38840084  0.92592329    -0.06800
C274        C  0.08286436  0.37677760  0.96606670     0.11500
C275        C  0.06826117  0.34530616  0.00135050    -0.23600
H276        H  0.04823363  0.38582925  0.00493433     0.15400
H277        H  0.14175632  0.42472163  0.85457205     0.15400
C278        C  0.12015517  0.46412585  0.84821359    -0.23600
H279        H  0.04572974  0.33891094  0.02472085     0.05600
H280        H  0.08226698  0.34384858  0.04988611     0.08800
H281        H  0.06515420  0.32852202  0.95663190     0.08800
H282        H  0.12940299  0.48335843  0.88907983     0.08800
H283        H  0.10250303  0.46490038  0.81006591     0.08800
H284        H  0.13897588  0.46722830  0.81100655     0.05600
C285        C  0.17257563  0.31114403  0.64557711    -0.20200
C286        C  0.17048234  0.33407663  0.60217246    -0.06800
C287        C  0.17493635  0.36014909  0.64301033     0.14100
C288        C  0.17324006  0.35876169  0.72385306    -0.20300
C289        C  0.16980918  0.33323613  0.76690309    -0.06800
C290        C  0.17339135  0.31092083  0.72675747     0.14100
C291        C  0.18038968  0.28777753  0.76559761    -0.23600
H292        H  0.17591181  0.29429962  0.61654804     0.15400
H293        H  0.17677252  0.37893070  0.75333165     0.15400
C294        C  0.18369049  0.39070493  0.60570578    -0.23600
H295        H  0.20199459  0.29067427  0.74341314     0.05600
H296        H  0.16227945  0.26449495  0.75152706     0.08800
H297        H  0.18324728  0.28990467  0.82907252     0.08800
H298        H  0.16625367  0.39738089  0.61695015     0.08800
H299        H  0.18706731  0.39163003  0.54273291     0.08800
H300        H  0.20546658  0.40801618  0.63156914     0.05600
C301        C  0.17446605  0.36052730  0.14193502    -0.20200
C302        C  0.17150329  0.33513801  0.10215694    -0.06800
C303        C  0.17581883  0.31328563  0.14624767     0.14100
C304        C  0.17499676  0.31355893  0.22710264    -0.20300
C305        C  0.17163847  0.33578733  0.26657212    -0.06800
C306        C  0.17570961  0.36176031  0.22296971     0.14100
C307        C  0.18368531  0.39201014  0.25791843    -0.23600
H308        H  0.17794798  0.38066213  0.11005134     0.15400
H309        H  0.17880054  0.29702006  0.25937323     0.15400
C310        C  0.18320589  0.29036315  0.11219808    -0.23600
H311        H  0.20531402  0.40976681  0.23369351     0.05600
H312        H  0.18702334  0.39271730  0.32138303     0.08800
H313        H  0.16588390  0.39819028  0.24278799     0.08800
H314        H  0.18538766  0.29192554  0.04872661     0.08800
H315        H  0.16557488  0.26702008  0.12785415     0.08800
H316        H  0.20519719  0.29395125  0.13671002     0.05600
C317        C  0.40084059  0.07376427  0.57881549    -0.20200
C318        C  0.43051729  0.08997352  0.55175348    -0.06800
C319        C  0.44252661  0.12138164  0.53340413     0.14100
C320        C  0.42450192  0.13530008  0.54167386    -0.20300
C321        C  0.39488635  0.11884308  0.56762753    -0.06800
C322        C  0.38294351  0.08780508  0.58671037     0.14100
C323        C  0.35081880  0.06926067  0.61221353    -0.23600
H324        H  0.39135580  0.04978032  0.59257922     0.15400
H325        H  0.43319130  0.15902654  0.52593764     0.15400
C326        C  0.47342989  0.13999523  0.50007295    -0.23600
H327        H  0.34453376  0.04504088  0.62199733     0.05600
H328        H  0.33525474  0.07035100  0.56721356     0.08800
H329        H  0.34784531  0.07823916  0.66721849     0.08800
H330        H  0.47460261  0.12930803  0.44590136     0.08800
H331        H  0.49102013  0.14150026  0.54229737     0.08800
H332        H  0.47839338  0.16357243  0.48563610     0.05600
C333        C  0.43173826  0.32713333  0.53496491    -0.20200
C334        C  0.41684316  0.34282598  0.55989055    -0.06800
C335        C  0.38798794  0.32574602  0.59373462     0.14100
C336        C  0.37468642  0.29388727  0.59812307    -0.20300
C337        C  0.38916713  0.27861669  0.56943369    -0.06800
C338        C  0.41828158  0.29540909  0.53931661     0.14100
C339        C  0.43542592  0.27987328  0.51324648    -0.23600
H340        H  0.45393218  0.33961144  0.51008520     0.15400
H341        H  0.35240001  0.28058348  0.62204636     0.15400
C342        C  0.37084561  0.34045383  0.62536666    -0.23600
H343        H  0.45860995  0.29650315  0.49504814     0.05600
H344        H  0.42365533  0.26508808  0.46322891     0.08800
H345        H  0.43733655  0.26591192  0.56154653     0.08800
H346        H  0.36466749  0.35180033  0.57794458     0.08800
H347        H  0.38483040  0.35721225  0.67013919     0.08800
H348        H  0.34952960  0.32355049  0.65282267     0.05600
C349        C  0.20560267  0.08047492  0.58697599    -0.20200
C350        C  0.21932893  0.11017859  0.55730306    -0.06800
C351        C  0.20135061  0.12192360  0.52437735     0.14100
C352        C  0.17000260  0.10315373  0.51862947    -0.20300
C353        C  0.15592124  0.07267397  0.54496445    -0.06800
C354        C  0.17417960  0.06143453  0.58117442     0.14100
C355        C  0.16116147  0.02967667  0.61423004    -0.23600
H356        H  0.21981386  0.07199544  0.61318054     0.15400
H357        H  0.15655112  0.11242102  0.49193560     0.15400
C358        C  0.21520506  0.15448514  0.49691977    -0.23600
H359        H  0.17876764  0.02564444  0.64336875     0.05600
H360        H  0.15081809  0.01281290  0.56728485     0.08800
H361        H  0.14402342  0.02593296  0.65792249     0.08800
H362        H  0.23057496  0.15848807  0.44837435     0.08800
H363        H  0.22812158  0.16983729  0.54526495     0.08800
H364        H  0.19775487  0.16045567  0.47613240     0.05600
C365        C  0.43390930  0.10847654  0.04039138    -0.20200
C366        C  0.41856865  0.07752871  0.06289182    -0.06800
C367        C  0.38946834  0.06574349  0.09540987     0.14100
C368        C  0.37615613  0.08449649  0.09969006    -0.20300
C369        C  0.39090357  0.11452426  0.07242602    -0.06800
C370        C  0.42038626  0.12697439  0.04475570     0.14100
C371        C  0.43759579  0.15989937  0.02071591    -0.23600
H372        H  0.45637534  0.11825179  0.01711337     0.15400
H373        H  0.35361353  0.07548324  0.12208158     0.15400
C374        C  0.37192108  0.03357877  0.12520118    -0.23600
H375        H  0.46087551  0.16641722  0.00294675     0.05600
H376        H  0.43920423  0.17440776  0.06993807     0.08800
H377        H  0.42590909  0.16442163  0.97106536     0.08800
H378        H  0.38553079  0.02907343  0.16980227     0.08800
H379        H  0.36591649  0.01764150  0.07659889     0.08800
H380        H  0.35048115  0.02911022  0.15209827     0.05600
C381        C  0.44179311  0.32448352  0.03025446    -0.20200
C382        C  0.42962372  0.34217909  0.05828942    -0.06800
C383        C  0.40102492  0.32743257  0.09354851     0.14100
C384        C  0.38496162  0.29555726  0.09676168    -0.20300
C385        C  0.39643356  0.27802824  0.06480424    -0.06800
C386        C  0.42543188  0.29258408  0.03256502     0.14100
C387        C  0.43931733  0.27453643  0.00190462    -0.23600
H388        H  0.46378467  0.33564605  0.00385915     0.15400
H389        H  0.36286564  0.28407513  0.12246783     0.15400
C390        C  0.38745882  0.34498087  0.12918065    -0.23600
H391        H  0.46279276  0.28951444  0.98268735     0.05600
H392        H  0.42601867  0.26100377  0.95145367     0.08800
H393        H  0.43993445  0.25906155  0.04793482     0.08800
H394        H  0.38205891  0.35767124  0.08382821     0.08800
H395        H  0.40353213  0.36104993  0.17249870     0.08800
H396        H  0.36612445  0.32971897  0.15911568     0.05600
C397        C  0.20374108  0.12184251  0.10158205    -0.20200
C398        C  0.21956550  0.11031524  0.06167092    -0.06800
C399        C  0.20338942  0.08256585  0.02234782     0.14100
C400        C  0.17174405  0.06824364  0.01885642    -0.20300
C401        C  0.15564476  0.08076558  0.05430481    -0.06800
C402        C  0.17203788  0.10748235  0.09888107     0.14100
C403        C  0.15668080  0.12097390  0.14483782    -0.23600
H404        H  0.21644800  0.14267535  0.13365821     0.15400
H405        H  0.15961426  0.04742786  0.98643636     0.15400
C406        C  0.21934633  0.06747281  0.98617481    -0.23600
H407        H  0.17307863  0.14026939  0.18067496     0.05600
H408        H  0.14020111  0.10349381  0.18450837     0.08800
H409        H  0.14507633  0.12985536  0.10538420     0.08800
H410        H  0.23427830  0.06462666  0.03003533     0.08800
H411        H  0.23296134  0.08121997  0.93678072     0.08800
H412        H  0.20311107  0.04464262  0.96375966     0.05600
C413        C  0.32467353  0.14062845  0.85973015    -0.20200
C414        C  0.32771238  0.16642571  0.89751156    -0.06800
C415        C  0.32217465  0.18712635  0.85174098     0.14100
C416        C  0.32372023  0.18664264  0.77098285    -0.20300
C417        C  0.32732036  0.16417254  0.73341981    -0.06800
C418        C  0.32258106  0.13837187  0.77879065     0.14100
C419        C  0.31209122  0.10723709  0.74622772    -0.23600
H420        H  0.32166641  0.12101755  0.89353942     0.15400
H421        H  0.31997064  0.20288678  0.73697212     0.15400
C422        C  0.31165860  0.20798077  0.88360104    -0.23600
H423        H  0.29061302  0.09081681  0.77383922     0.05600
H424        H  0.32910284  0.09985570  0.75975871     0.08800
H425        H  0.30718813  0.10582124  0.68330389     0.08800
H426        H  0.32868685  0.23202319  0.87244776     0.08800
H427        H  0.30669349  0.20446204  0.94594834     0.08800
H428        H  0.29018017  0.20351185  0.85384255     0.05600
C429        C  0.32574977  0.18849033  0.27086273    -0.20200
C430        C  0.32843457  0.16545737  0.23335547    -0.06800
C431        C  0.32280681  0.13933879  0.27861848     0.14100
C432        C  0.32492364  0.14153659  0.35948470    -0.20300
C433        C  0.32819977  0.16739332  0.39740907    -0.06800
C434        C  0.32323709  0.18844021  0.35147489     0.14100
C435        C  0.31168082  0.20855328  0.38257103    -0.23600
H436        H  0.32305499  0.20537716  0.23674711     0.15400
H437        H  0.32167960  0.12180739  0.39321792     0.15400
C438        C  0.31138711  0.10801124  0.24600040    -0.23600
H439        H  0.29023585  0.20353500  0.35173830     0.05600
H440        H  0.32820914  0.23280373  0.37197759     0.08800
H441        H  0.30628760  0.20469405  0.44468238     0.08800
H442        H  0.32784086  0.09984034  0.25906238     0.08800
H443        H  0.30642096  0.10668297  0.18313425     0.08800
H444        H  0.28974595  0.09208881  0.27372840     0.05600
C445        C  0.33224510  0.66703180  0.14439533     0.30100
C446        C  0.33256111  0.66752920  0.98542295     0.30100
C447        C  0.34791758  0.65088418  0.10787718    -0.06100
C448        C  0.30144770  0.65294903  0.10296762    -0.06900
C449        C  0.34957793  0.69869213  0.10512907    -0.06800
C450        C  0.34781252  0.65073405  0.02694847    -0.06100
C451        C  0.30160670  0.65316663  0.02287802    -0.06900
C452        C  0.35000772  0.69875851  0.02432129    -0.06800
C453        C  0.36534082  0.63797629  0.00668028    -0.32200
N454        N  0.37551219  0.63025322  0.07231563     0.14300
C455        C  0.36554890  0.63850159  0.13422225    -0.32200
H456        H  0.37131543  0.63613786  0.19378609     0.16300
C457        C  0.27201060  0.63814209  0.99731460    -0.31100
N458        N  0.25403182  0.62847474  0.06001119     0.13100
C459        C  0.27176401  0.63773736  0.12486778    -0.31100
C460        C  0.36906437  0.72811539  0.00061150    -0.31400
N461        N  0.37955702  0.74595558  0.06387873     0.13600
H462        H  0.37498991  0.73611357  0.94172045     0.16200
C463        C  0.36825490  0.72831044  0.12802695    -0.31400
H464        H  0.37323480  0.73661613  0.18665193     0.16200
H465        H  0.26362821  0.63304649  0.18351681     0.16200
H466        H  0.37072449  0.63475677  0.94876912     0.16300
H467        H  0.26415488  0.63453307  0.93758662     0.16200
C468        C  0.33209706  0.66861878  0.48506006     0.30100
C469        C  0.33166527  0.66661718  0.64408993     0.30100
C470        C  0.34840400  0.65261145  0.52484672    -0.06100
C471        C  0.34835452  0.69964682  0.52560400    -0.06900
C472        C  0.30112255  0.65283529  0.52239494    -0.06800
C473        C  0.34851397  0.65193781  0.60576263    -0.06100
C474        C  0.34778894  0.69870310  0.60644972    -0.06900
C475        C  0.30082021  0.65183067  0.60253792    -0.06800
C476        C  0.36706034  0.64023442  0.62990736    -0.32200
N477        N  0.37719300  0.63293528  0.56651343     0.14300
C478        C  0.36670473  0.64106596  0.50226634    -0.32200
H479        H  0.37251375  0.63911315  0.44373618     0.16300
C480        C  0.36496731  0.72828255  0.63125118    -0.31100
N481        N  0.37562486  0.74683532  0.56846721     0.13100
C482        C  0.36619631  0.72960422  0.50391367    -0.31100
C483        C  0.27102570  0.63619477  0.62385301    -0.31400
N484        N  0.25345346  0.62802448  0.55856332     0.13600
H485        H  0.26271142  0.63094306  0.68231071     0.16200
C486        C  0.27163718  0.63773392  0.49627767    -0.31400
H487        H  0.26400211  0.63346509  0.43650517     0.16200
H488        H  0.37183206  0.73836480  0.44551651     0.16200
H489        H  0.37333189  0.63774967  0.68887357     0.16300
H490        H  0.36999575  0.73598714  0.69042351     0.16200
C491        C  0.16888497  0.83496340  0.00863624     0.30100
C492        C  0.16761868  0.83317263  0.85004598     0.30100
C493        C  0.15787832  0.85541813  0.96665911    -0.06100
C494        C  0.19898239  0.84441593  0.96997632    -0.06900
C495        C  0.14720261  0.80398758  0.97232380    -0.06800
C496        C  0.15716408  0.85452178  0.88540885    -0.06100
C497        C  0.19843392  0.84342290  0.89009717    -0.06900
C498        C  0.14647422  0.80295107  0.89173453    -0.06800
C499        C  0.13812232  0.86568748  0.86000879    -0.32200
N500        N  0.12842266  0.87412640  0.92211011     0.14300
C501        C  0.13921994  0.86692489  0.98704914    -0.32200
H502        H  0.13258685  0.86869035  0.04475474     0.16300
C503        C  0.22807408  0.85624343  0.86697484    -0.31100
N504        N  0.24631948  0.86479007  0.93112378     0.13100
C505        C  0.22878359  0.85798788  0.99421574    -0.31100
C506        C  0.12645013  0.77330609  0.87158010    -0.31400
N507        N  0.11558405  0.75645709  0.93727929     0.13600
H508        H  0.12150338  0.76426914  0.81372414     0.16200
C509        C  0.12770133  0.77513126  0.99882357    -0.31400
H510        H  0.12359177  0.76780069  0.05871503     0.16200
H511        H  0.23721555  0.86388694  0.05307318     0.16200
H512        H  0.13070445  0.86648424  0.80108311     0.16300
H513        H  0.23586722  0.86071249  0.80802540     0.16200
C514        C  0.16946031  0.83441655  0.34967066     0.30100
C515        C  0.16872942  0.83279622  0.50849565     0.30100
C516        C  0.14859435  0.84477059  0.38695195    -0.06100
C517        C  0.15758686  0.80252820  0.38781500    -0.06900
C518        C  0.19993632  0.85313191  0.39152936    -0.06800
C519        C  0.14822265  0.84377448  0.46761662    -0.06100
C520        C  0.15729833  0.80171304  0.46889896    -0.06900
C521        C  0.19949589  0.85232978  0.47156218    -0.06800
C522        C  0.12826840  0.85327211  0.48994240    -0.32200
N523        N  0.11697115  0.86057230  0.42575181     0.14300
C524        C  0.12883770  0.85509077  0.36253845    -0.32200
H525        H  0.12367926  0.85875723  0.30340290     0.16300
C526        C  0.14060437  0.77146080  0.49058970    -0.31100
N527        N  0.13200943  0.75415355  0.42631035     0.13100
C528        C  0.14103238  0.77273060  0.36334714    -0.31100
C529        C  0.22889378  0.86926545  0.49796736    -0.31400
N530        N  0.24707843  0.88039990  0.43590016     0.13600
H531        H  0.23660751  0.87263161  0.55779438     0.16200
C532        C  0.22971400  0.87042454  0.37050494    -0.31400
H533        H  0.23818977  0.87506032  0.31218172     0.16200
H534        H  0.13500649  0.76491913  0.30447227     0.16200
H535        H  0.12305049  0.85571035  0.54867817     0.16300
H536        H  0.13381427  0.76240334  0.54835683     0.16200
O537        O  0.03970560  0.98721911  0.05226109    -0.88300
C538        C  0.04471382  0.54773883  0.88694442     0.87800
Mg539      Mg  0.00755819  0.93971801  0.04849804     1.58100
O540        O  0.01324424  0.55255800  0.06173498    -0.88000
O541        O  0.05557921  0.52717023  0.13211599    -0.75300
C542        C  0.37622383  0.93418475  0.96255304     0.92800
O543        O  0.02395137  0.97642688  0.87051787    -0.75100
O544        O  0.39082396  0.91994235  0.95247146    -0.82600
Mg545      Mg  0.06595614  0.50733806  0.95080393     1.58000
C546        C  0.43365054  0.55717030  0.05494901     0.92700
O547        O  0.11066208  0.53958282  0.01425937    -0.80900
H548        H  0.01668081  0.56018180  0.17552364    -0.06300
C549        C  0.45319847  0.00301241  0.88497170     0.87700
O550        O  0.47611326  0.94659498  0.12766935    -0.75400
O551        O  0.05116471  0.54070713  0.95091940    -0.88200
O552        O  0.46044891  0.57034389  0.02967718    -0.81000
C553        C  0.05530924  0.62559313  0.96971090     0.92900
C554        C  0.12429968  0.56680976  0.03897151     0.92700
Mg555      Mg  0.43399063  0.99417298  0.05285793     1.58000
O556        O  0.38965356  0.96150568  0.98656510    -0.80900
O557        O  0.47510630  0.52491859  0.13757539    -0.75200
O558        O  0.06957277  0.61148113  0.99068473    -0.81000
O559        O  0.07959856  0.97205623  0.94354932    -0.82700
O560        O  0.43127216  0.89137143  0.01477087    -0.81000
C561        C  0.50185805  0.54581575  0.12498688     0.87100
O562        O  0.44933029  0.96114944  0.05442921    -0.88200
O563        O  0.45924757  0.51204931  0.95651939    -0.88300
O564        O  0.44693582  0.97576403  0.87309625    -0.75300
Mg565      Mg  0.06047005  0.56695195  0.05460759     1.58000
O566        O  0.02667990  0.61157614  0.96111825    -0.82700
H567        H  0.04710452  0.98444008  0.16566903    -0.06400
O568        O  0.48821087  0.94967249  0.94566038    -0.88000
H569        H  0.48561578  0.94404641  0.83107868    -0.06300
H570        H  0.44316525  0.95411424  0.16840359    -0.06400
C571        C  0.99730435  0.95520231  0.88236490     0.87100
C572        C  0.04952657  0.49997315  0.12070686     0.87700
C573        C  0.45535763  0.95374583  0.11849417     0.87800
H574        H  0.45055175  0.51375088  0.84346571    -0.06400
O575        O  0.02354411  0.55427463  0.87820947    -0.75400
Mg576      Mg  0.44098249  0.93544034  0.95017201     1.58000
H577        H  0.05676138  0.54737423  0.83674539    -0.06400
C578        C  0.06640019  0.94336094  0.95263496     0.92700
O579        O  0.47332510  0.88951761  0.04351803    -0.82700
C580        C  0.44468122  0.87644629  0.03531781     0.92800
O581        O  0.11024393  0.58157849  0.04904009    -0.82700
Mg582      Mg  0.49137953  0.55986073  0.95842527     1.58200
O583        O  0.03964877  0.92890015  0.97870725    -0.81000
O584        O  0.41883437  0.52838396  0.06261261    -0.82700
O585        O  0.48753188  0.54062014  0.44221849    -0.88300
C586        C  0.04961947  0.54701353  0.60922118     0.87800
Mg587      Mg  0.44017437  0.50930359  0.45074941     1.58100
O588        O  0.05108319  0.50995175  0.44096014    -0.88000
O589        O  0.02552131  0.55129008  0.36328627    -0.75300
C590        C  0.43347444  0.87742294  0.54879544     0.92800
O591        O  0.47804929  0.52928448  0.62586494    -0.75100
O592        O  0.41891208  0.89183957  0.55691463    -0.82600
Mg593      Mg  0.00994783  0.56872799  0.54196321     1.58000
C594        C  0.05326065  0.92814680  0.45799589     0.92700
O595        O  0.04226209  0.61158021  0.47221421    -0.80900
H596        H  0.05711900  0.51011969  0.32713195    -0.06300
C597        C  0.50235684  0.95484971  0.62044035     0.87700
O598        O  0.44595474  0.97627721  0.37497659    -0.75400
O599        O  0.04161484  0.55182014  0.54452425    -0.88200
O600        O  0.06819955  0.95581448  0.47932256    -0.81000
C601        C  0.12438162  0.55425953  0.52945662     0.92900
C602        C  0.06889538  0.62382866  0.44567841     0.92700
Mg603      Mg  0.49199024  0.93294020  0.45389550     1.58000
O604        O  0.46033750  0.89078268  0.52388021    -0.80900
O605        O  0.02210141  0.97020536  0.36982240    -0.75200
O606        O  0.10992914  0.56763410  0.50419542    -0.81000
O607        O  0.47589877  0.58530086  0.54426272    -0.82700
O608        O  0.39064269  0.93304603  0.48959831    -0.81000
C609        C  0.04312911  0.99732266  0.37859397     0.87100
O610        O  0.46015803  0.94976993  0.45069235    -0.88200
O611        O  0.01210609  0.95887096  0.55364520    -0.88300
O612        O  0.47555204  0.94961704  0.63166694    -0.75300
Mg613      Mg  0.06605590  0.55776601  0.43982262     1.58000
O614        O  0.11121947  0.52556938  0.53946466    -0.82700
H615        H  0.48366967  0.54508069  0.32780297    -0.06400
O616        O  0.45002306  0.99099279  0.55526859    -0.88000
H617        H  0.44460757  0.99057490  0.66945806    -0.06300
H618        H  0.45238468  0.94202265  0.33720567    -0.06400
C619        C  0.45659798  0.50233900  0.61756973     0.87100
C620        C  0.99895257  0.54652418  0.37545695     0.87700
C621        C  0.45260947  0.95515386  0.38604302     0.87800
H622        H  0.01553345  0.95396060  0.66804693    -0.06400
O623        O  0.05619574  0.52588213  0.62115819    -0.75400
Mg624      Mg  0.43497584  0.94295507  0.55469014     1.58000
H625        H  0.05026473  0.56063420  0.65738014    -0.06400
C626        C  0.44726278  0.57203336  0.53752775     0.92700
O627        O  0.39034584  0.97599856  0.45733753    -0.82700
C628        C  0.37670693  0.94719640  0.46607198     0.92800
O629        O  0.08258195  0.60861851  0.43655674    -0.82700
Mg630      Mg  0.05940761  0.99060979  0.54541292     1.58200
O631        O  0.43211158  0.54440134  0.51612370    -0.81000
O632        O  0.02455480  0.91442205  0.45287457    -0.82700
C633        C  0.08698288  0.70536705  0.39707709    -0.20200
C634        C  0.11674715  0.72149488  0.42554673    -0.06800
C635        C  0.13159955  0.70542817  0.45252032     0.14100
C636        C  0.11577171  0.67355038  0.45514001    -0.20300
C637        C  0.08531832  0.65721651  0.43121764    -0.06800
C638        C  0.07109703  0.67337644  0.39916074     0.14100
C639        C  0.03963988  0.65704684  0.36487713    -0.23600
H640        H  0.07609993  0.71793934  0.37414423     0.15400
H641        H  0.12701139  0.66136026  0.47840513     0.15400
C642        C  0.16434563  0.72206003  0.47751196    -0.23600
H643        H  0.03253783  0.67310448  0.33929917     0.05600
H644        H  0.02344744  0.64363301  0.41023653     0.08800
H645        H  0.03861524  0.64166013  0.31857775     0.08800
H646        H  0.16735912  0.73636778  0.52830995     0.08800
H647        H  0.17814347  0.73670860  0.42922054     0.08800
H648        H  0.17292477  0.70612293  0.49401727     0.05600
C649        C  0.29657213  0.88421139  0.41753384    -0.20200
C650        C  0.27949043  0.89774199  0.43941337    -0.06800
C651        C  0.29432344  0.92779948  0.46646805     0.14100
C652        C  0.32603073  0.94363872  0.47183472    -0.20300
C653        C  0.34336006  0.92983822  0.45278271    -0.06800
C654        C  0.32827990  0.89962755  0.42482908     0.14100
C655        C  0.34525768  0.88350511  0.40162586    -0.23600
H656        H  0.28484188  0.86110672  0.39663324     0.15400
H657        H  0.33729022  0.96665486  0.49341454     0.15400
C658        C  0.27658208  0.94313165  0.48912269    -0.23600
H659        H  0.32992995  0.86095558  0.37622952     0.05600
H660        H  0.35663239  0.87958207  0.45299553     0.08800
H661        H  0.36224107  0.89727627  0.35765300     0.08800
H662        H  0.26187540  0.93076273  0.53844377     0.08800
H663        H  0.26235116  0.94336366  0.43928672     0.08800
H664        H  0.29161716  0.96696475  0.50704316     0.05600
C665        C  0.05562983  0.87984229  0.46472249    -0.20200
C666        C  0.06940380  0.91072857  0.44258239    -0.06800
C667        C  0.09816702  0.92401133  0.40812848     0.14100
C668        C  0.11276654  0.90652746  0.40004555    -0.20300
C669        C  0.09960735  0.87628404  0.42625867    -0.06800
C670        C  0.07047379  0.86260539  0.45745148     0.14100
C671        C  0.05496504  0.82970093  0.48214690    -0.23600
H672        H  0.03345738  0.86931762  0.49009899     0.15400
H673        H  0.13505691  0.91673384  0.37547646     0.15400
C674        C  0.11341510  0.95633955  0.37849485    -0.23600
H675        H  0.03172593  0.82213036  0.50222975     0.05600
H676        H  0.06779891  0.82605497  0.53044445     0.08800
H677        H  0.05341995  0.81537379  0.43257080     0.08800
H678        H  0.11926498  0.97227637  0.42725782     0.08800
H679        H  0.09819795  0.95963363  0.33650371     0.08800
H680        H  0.13469277  0.96218063  0.34857680     0.05600
C681        C  0.11470640  0.70983141  0.98379785    -0.20200
C682        C  0.10045781  0.72375109  0.94240418    -0.06800
C683        C  0.07179964  0.70547677  0.90801054     0.14100
C684        C  0.05798798  0.67362883  0.91635809    -0.20300
C685        C  0.07220253  0.65940928  0.95799734    -0.06800
C686        C  0.10123249  0.67812209  0.99194345     0.14100
C687        C  0.11823535  0.66536421  0.03853120    -0.23600
H688        H  0.13675745  0.72411598  0.00980896     0.15400
H689        H  0.03579577  0.65979644  0.89056842     0.15400
C690        C  0.05531427  0.71958508  0.86510757    -0.23600
H691        H  0.13998023  0.68351786  0.06241501     0.05600
H692        H  0.12362251  0.65112874  0.00104521     0.08800
H693        H  0.10456685  0.65173897  0.08821077     0.08800
H694        H  0.06808723  0.73221915  0.81341235     0.08800
H695        H  0.05264127  0.73540015  0.90365510     0.08800
H696        H  0.03249075  0.70215119  0.84508464     0.05600
C697        C  0.29217127  0.91277753  0.95620307    -0.20200
C698        C  0.27871094  0.88258620  0.93249096    -0.06800
C699        C  0.29705941  0.86975843  0.91527317     0.14100
C700        C  0.32863844  0.88740262  0.92317375    -0.20300
C701        C  0.34257356  0.91777081  0.94872573    -0.06800
C702        C  0.32368502  0.93058860  0.96464366     0.14100
C703        C  0.33598614  0.96260573  0.99259987    -0.23600
H704        H  0.27764929  0.92222184  0.96954090     0.15400
H705        H  0.34240028  0.87699020  0.91090330     0.15400
C706        C  0.28311241  0.83708301  0.89144201    -0.23600
H707        H  0.31782822  0.96854685  0.00111186     0.05600
H708        H  0.35165069  0.97893378  0.94950264     0.08800
H709        H  0.34778195  0.96511196  0.04927993     0.08800
H710        H  0.26988131  0.83364239  0.83672726     0.08800
H711        H  0.26789806  0.82216204  0.93735172     0.08800
H712        H  0.30051748  0.83017361  0.88195665     0.05600
C713        C  0.06624988  0.89439620  0.92794145    -0.20200
C714        C  0.08288793  0.92626450  0.93587377    -0.06800
C715        C  0.11499308  0.94057849  0.93355979     0.14100
C716        C  0.12912369  0.92273637  0.92586629    -0.20300
C717        C  0.11244591  0.89115476  0.92061206    -0.06800
C718        C  0.08073627  0.87677457  0.92051892     0.11500
C719        C  0.06244312  0.84280072  0.91434924    -0.23600
H720        H  0.04181941  0.88308303  0.92916823     0.15400
H721        H  0.15353748  0.93331899  0.92624755     0.15400
C722        C  0.13497850  0.97439907  0.94243108    -0.23600
H723        H  0.03782053  0.83489182  0.91547064     0.05600
H724        H  0.06830132  0.83187353  0.96349849     0.08800
H725        H  0.06742918  0.83543470  0.85920265     0.08800
H726        H  0.13079359  0.98178634  0.99860490     0.08800
H727        H  0.13062907  0.98669797  0.89388705     0.08800
H728        H  0.15933084  0.98105691  0.94158904     0.05600
C729        C  0.17259243  0.81121955  0.64024847    -0.20200
C730        C  0.17057943  0.83424821  0.59709074    -0.06800
C731        C  0.17510527  0.86027854  0.63824817     0.14100
C732        C  0.17327916  0.85872402  0.71904673    -0.20300
C733        C  0.16955126  0.83303188  0.76178037    -0.06800
C734        C  0.17330219  0.81085184  0.72145728     0.14100
C735        C  0.18059337  0.78788235  0.76010524    -0.23600
H736        H  0.17610701  0.79452570  0.61106002     0.15400
H737        H  0.17697187  0.87889259  0.74881572     0.15400
C738        C  0.18408444  0.89095472  0.60137269    -0.23600
H739        H  0.20215545  0.79085803  0.73738737     0.05600
H740        H  0.16252550  0.76453137  0.74647666     0.08800
H741        H  0.18375187  0.79020152  0.82350074     0.08800
H742        H  0.16670069  0.89770977  0.61254796     0.08800
H743        H  0.18759093  0.89202632  0.53844276     0.08800
H744        H  0.20584611  0.90813020  0.62761450     0.05600
C745        C  0.17436722  0.86117853  0.13661906    -0.20200
C746        C  0.17195499  0.83596408  0.09710106    -0.06800
C747        C  0.17702872  0.81462208  0.14136869     0.14100
C748        C  0.17623087  0.81496491  0.22221241    -0.20300
C749        C  0.17217408  0.83680873  0.26145896    -0.06800
C750        C  0.17579029  0.86257078  0.21766820     0.14100
C751        C  0.18367661  0.89281190  0.25244497    -0.23600
H752        H  0.17736891  0.88110405  0.10450493     0.15400
H753        H  0.18056326  0.79880443  0.25468721     0.15400
C754        C  0.18517241  0.79221168  0.10750407    -0.23600
H755        H  0.20512955  0.91063869  0.22759400     0.05600
H756        H  0.18734444  0.89362370  0.31582207     0.08800
H757        H  0.16569884  0.89879695  0.23788928     0.08800
H758        H  0.18741094  0.79382318  0.04404502     0.08800
H759        H  0.16793750  0.76869710  0.12316146     0.08800
H760        H  0.20733527  0.79636382  0.13213384     0.05600
C761        C  0.40059928  0.57280745  0.57572954    -0.20200
C762        C  0.43079324  0.58916840  0.55232778    -0.06800
C763        C  0.44347368  0.62089990  0.53736300     0.14100
C764        C  0.42557015  0.63495254  0.54487617    -0.20300
C765        C  0.39545091  0.61832327  0.56662651    -0.06800
C766        C  0.38282030  0.58700383  0.58266496     0.14100
C767        C  0.35017714  0.56843455  0.60396691    -0.23600
H768        H  0.39060392  0.54860427  0.58707072     0.15400
H769        H  0.43476955  0.65895424  0.53172728     0.15400
C770        C  0.47504087  0.63985387  0.50829219    -0.23600
H771        H  0.34348178  0.54404916  0.61232440     0.05600
H772        H  0.33559028  0.57028802  0.55730364     0.08800
H773        H  0.34622816  0.57682700  0.65873430     0.08800
H774        H  0.47704442  0.63012044  0.45343223     0.08800
H775        H  0.49175794  0.64035243  0.55200978     0.08800
H776        H  0.48051540  0.66374008  0.49623971     0.05600
C777        C  0.43334025  0.82826779  0.53392252    -0.20200
C778        C  0.41886530  0.84380513  0.56271663    -0.06800
C779        C  0.39078177  0.82655178  0.59998562     0.14100
C780        C  0.37745877  0.79465111  0.60273077    -0.20300
C781        C  0.39132893  0.77948891  0.56977181    -0.06800
C782        C  0.42003022  0.79651575  0.53734650     0.14100
C783        C  0.43703408  0.78126635  0.50832122    -0.23600
H784        H  0.45508439  0.84090987  0.50680713     0.15400
H785        H  0.35565010  0.78125696  0.62906893     0.15400
C786        C  0.37467182  0.84119186  0.63764815    -0.23600
H787        H  0.46001360  0.79808515  0.48917748     0.05600
H788        H  0.42490188  0.76670764  0.45824903     0.08800
H789        H  0.43947716  0.76714857  0.55537519     0.08800
H790        H  0.36736533  0.85272653  0.59333795     0.08800
H791        H  0.38986031  0.85779830  0.68129899     0.08800
H792        H  0.35412438  0.82420869  0.66788137     0.05600
C793        C  0.20691839  0.58170171  0.59134087    -0.20200
C794        C  0.22110271  0.61039240  0.55547791    -0.06800
C795        C  0.20344159  0.62136345  0.51656577     0.14100
C796        C  0.17211260  0.60264355  0.51052115    -0.20300
C797        C  0.15765086  0.57312096  0.54307249    -0.06800
C798        C  0.17543514  0.56285147  0.58590250     0.14100
C799        C  0.16174429  0.53246873  0.62702434    -0.23600
H800        H  0.22077477  0.57384489  0.62246002     0.15400
H801        H  0.15893974  0.61118679  0.47889763     0.15400
C802        C  0.21746568  0.65320193  0.48360392    -0.23600
H803        H  0.17895037  0.52928261  0.66117341     0.05600
H804        H  0.15145096  0.51385924  0.58437609     0.08800
H805        H  0.14440166  0.53070847  0.66774468     0.08800
H806        H  0.23260238  0.65587763  0.43558202     0.08800
H807        H  0.23055995  0.66974152  0.52965889     0.08800
H808        H  0.20008837  0.65883325  0.46019617     0.05600
C809        C  0.43419120  0.60684850  0.04303715    -0.20200
C810        C  0.41934686  0.57642021  0.06993120    -0.06800
C811        C  0.39101023  0.56537602  0.10599135     0.14100
C812        C  0.37752459  0.58403052  0.10803832    -0.20300
C813        C  0.39155878  0.61334556  0.07580413    -0.06800
C814        C  0.42067440  0.62536610  0.04591083     0.14100
C815        C  0.43763488  0.65790898  0.01845985    -0.23600
H816        H  0.45624445  0.61616952  0.01749430     0.15400
H817        H  0.35542319  0.57546752  0.13285731     0.15400
C818        C  0.37466796  0.53423139  0.14264066    -0.23600
H819        H  0.46078995  0.66417373  0.00012371     0.05600
H820        H  0.43959266  0.67319198  0.06612219     0.08800
H821        H  0.42563551  0.66167058  0.96832731     0.08800
H822        H  0.38962286  0.53136124  0.18636872     0.08800
H823        H  0.36750825  0.51668421  0.09766296     0.08800
H824        H  0.35398948  0.53051871  0.17239163     0.05600
C825        C  0.44019162  0.82729809  0.08491950    -0.20200
C826        C  0.42653339  0.84278693  0.04682309    -0.06800
C827        C  0.39661365  0.82540671  0.01612159     0.14100
C828        C  0.38177749  0.79367762  0.02408062    -0.20300
C829        C  0.39561576  0.77856475  0.06133671    -0.06800
C830        C  0.42509607  0.79542713  0.09223848     0.14100
C831        C  0.44099642  0.77967053  0.12985232    -0.23600
H832        H  0.46299864  0.84009838  0.10812494     0.15400
H833        H  0.35913722  0.78026225  0.00031450     0.15400
C834        C  0.38009445  0.83946795  0.97245983    -0.23600
H835        H  0.46445151  0.79609715  0.14820985     0.05600
H836        H  0.44201756  0.76372485  0.08834551     0.08800
H837        H  0.42869317  0.76683276  0.18191473     0.08800
H838        H  0.39318130  0.85236565  0.92127238     0.08800
H839        H  0.37644042  0.85463910  0.01101734     0.08800
H840        H  0.35749806  0.82207036  0.95091581     0.05600
C841        C  0.20577763  0.62392029  0.09634061    -0.20200
C842        C  0.22162467  0.61194015  0.05854885    -0.06800
C843        C  0.20554673  0.58364978  0.02168502     0.14100
C844        C  0.17388286  0.56914602  0.01835367    -0.20300
C845        C  0.15771569  0.58198454  0.05197779    -0.06800
C846        C  0.17409098  0.60933354  0.09423853     0.14100
C847        C  0.15875964  0.62324876  0.13863234    -0.23600
H848        H  0.21847076  0.64519434  0.12665831     0.15400
H849        H  0.16178709  0.54786398  0.98780747     0.15400
C850        C  0.22167835  0.56822427  0.98826921    -0.23600
H851        H  0.17519644  0.64308407  0.17285786     0.05600
H852        H  0.14254851  0.60623730  0.17965289     0.08800
H853        H  0.14687651  0.63146736  0.09818982     0.08800
H854        H  0.23649137  0.56587596  0.03344350     0.08800
H855        H  0.23547966  0.58151721  0.93860798     0.08800
H856        H  0.20555410  0.54515502  0.96705671     0.05600
C857        C  0.32712793  0.64114646  0.85848494    -0.20200
C858        C  0.33024185  0.66687757  0.89676792    -0.06800
C859        C  0.32476167  0.68774763  0.85140399     0.14100
C860        C  0.32604072  0.68730169  0.77057541    -0.20300
C861        C  0.32932627  0.66476556  0.73247007    -0.06800
C862        C  0.32468962  0.63892798  0.77754004     0.14100
C863        C  0.31385827  0.60776075  0.74474071    -0.23600
H864        H  0.32408371  0.62145028  0.89190443     0.15400
H865        H  0.32231668  0.70364536  0.73696159     0.15400
C866        C  0.31465883  0.70887807  0.88370773    -0.23600
H867        H  0.29244071  0.59144683  0.77277786     0.05600
H868        H  0.33076854  0.60017633  0.75753260     0.08800
H869        H  0.30873143  0.60641500  0.68192871     0.08800
H870        H  0.33172640  0.73284911  0.87179874     0.08800
H871        H  0.31010119  0.70564128  0.94626806     0.08800
H872        H  0.29306156  0.70448169  0.85479727     0.05600
C873        C  0.32734579  0.68889342  0.26970276    -0.20200
C874        C  0.32976050  0.66565551  0.23256607    -0.06800
C875        C  0.32361221  0.63944103  0.27804048     0.14100
C876        C  0.32595170  0.64181166  0.35886464    -0.20300
C877        C  0.32987343  0.66799559  0.39643914    -0.06800
C878        C  0.32505848  0.68909628  0.35033039     0.14100
C879        C  0.31379094  0.70946446  0.38126911    -0.23600
H880        H  0.32471983  0.70575812  0.23530617     0.15400
H881        H  0.32238745  0.62203275  0.39286506     0.15400
C882        C  0.31130683  0.60793546  0.24572733    -0.23600
H883        H  0.29236651  0.70458402  0.35053151     0.05600
H884        H  0.33046073  0.73364818  0.37040469     0.08800
H885        H  0.30843247  0.70571342  0.44340876     0.08800
H886        H  0.32727508  0.59913995  0.25857412     0.08800
H887        H  0.30620499  0.60664293  0.18291892     0.08800
H888        H  0.28958233  0.59251300  0.27382440     0.05600
C889        C  0.83155242  0.16843558  0.14351207     0.30100
C890        C  0.83125777  0.16843125  0.98451390     0.30100
C891        C  0.84766207  0.15274359  0.10694637    -0.06100
C892        C  0.80060920  0.15368566  0.10294264    -0.06900
C893        C  0.84811204  0.19996365  0.10351665    -0.06800
C894        C  0.84731401  0.15242945  0.02605312    -0.06100
C895        C  0.80038236  0.15355370  0.02283617    -0.06900
C896        C  0.84824759  0.19991145  0.02268314    -0.06800
C897        C  0.86497329  0.13986183  0.00551226    -0.32200
N898        N  0.87531512  0.13222070  0.07090580     0.14300
C899        C  0.86537207  0.14038942  0.13304926    -0.32200
H900        H  0.87099427  0.13777926  0.19259250     0.16300
C901        C  0.77061161  0.13812488  0.99849737    -0.31100
N902        N  0.75298370  0.12863071  0.06197695     0.13100
C903        C  0.77108941  0.13838710  0.12604211    -0.31100
C904        C  0.86777058  0.22920572  0.99873715    -0.31400
N905        N  0.87908250  0.24695471  0.06214925     0.13600
H906        H  0.87326016  0.23704519  0.93965455     0.16200
C907        C  0.86763342  0.22932435  0.12618311    -0.31400
H908        H  0.87385348  0.23737299  0.18486487     0.16200
H909        H  0.76331860  0.13402266  0.18505094     0.16200
H910        H  0.87023998  0.13655889  0.94756872     0.16300
H911        H  0.76240735  0.13422216  0.93908837     0.16200
C912        C  0.83137844  0.17000192  0.48410180     0.30100
C913        C  0.83147172  0.16715772  0.64313049     0.30100
C914        C  0.84811641  0.15422422  0.52224215    -0.06100
C915        C  0.84749584  0.20076812  0.52551947    -0.06900
C916        C  0.80054373  0.15376241  0.52199386    -0.06800
C917        C  0.84852741  0.15297183  0.60309226    -0.06100
C918        C  0.84720342  0.19939719  0.60637491    -0.06900
C919        C  0.80049931  0.15230716  0.60212244    -0.06800
C920        C  0.86727951  0.14114504  0.62471940    -0.32200
N921        N  0.87699132  0.13415723  0.55984213     0.14300
C922        C  0.86648663  0.14323338  0.49733698    -0.32200
H923        H  0.87241608  0.14245270  0.43818063     0.16300
C924        C  0.86492401  0.22873228  0.63210686    -0.31100
N925        N  0.87569118  0.24751480  0.56980243     0.13100
C926        C  0.86579939  0.23069290  0.50467934    -0.31100
C927        C  0.77077124  0.13647246  0.62396928    -0.31400
N928        N  0.75301019  0.12865102  0.55901427     0.13600
H929        H  0.76262910  0.13087222  0.68253034     0.16200
C930        C  0.77098834  0.13878846  0.49639175    -0.31400
H931        H  0.76315788  0.13493896  0.43671885     0.16200
H932        H  0.87162131  0.23970602  0.44655788     0.16200
H933        H  0.87351852  0.13784448  0.68308105     0.16300
H934        H  0.87029141  0.23605808  0.69153169     0.16200
C935        C  0.66911023  0.33471612  0.00934571     0.30100
C936        C  0.66886867  0.33384537  0.85070533     0.30100
C937        C  0.65848288  0.35545408  0.96748255    -0.06100
C938        C  0.69939310  0.34432060  0.97190096    -0.06900
C939        C  0.64762161  0.30399624  0.97171193    -0.06800
C940        C  0.65822480  0.35499379  0.88619687    -0.06100
C941        C  0.69945715  0.34390597  0.89197992    -0.06900
C942        C  0.64743125  0.30341458  0.89110906    -0.06800
C943        C  0.63934349  0.36630247  0.86062678    -0.32200
N944        N  0.62943166  0.37448881  0.92271185     0.14300
C945        C  0.63984612  0.36695087  0.98773033    -0.32200
H946        H  0.63294923  0.36847725  0.04531665     0.16300
C947        C  0.72934454  0.35747342  0.87046824    -0.31100
N948        N  0.74705109  0.36574632  0.93567299     0.13100
C949        C  0.72894757  0.35812132  0.99774579    -0.31100
C950        C  0.62753022  0.27389693  0.86966851    -0.31400
N951        N  0.61622666  0.25670949  0.93465689     0.13600
H952        H  0.62296823  0.26517150  0.81149731     0.16200
C953        C  0.62791334  0.27503376  0.99695646    -0.31400
H954        H  0.62341959  0.26737236  0.05654280     0.16200
H955        H  0.73682381  0.36362461  0.05713196     0.16200
H956        H  0.63215783  0.36738644  0.80163194     0.16300
H957        H  0.73761332  0.36265693  0.81200494     0.16200
C958        C  0.66973625  0.33408572  0.35050527     0.30100
C959        C  0.66915187  0.33294830  0.50927530     0.30100
C960        C  0.64848662  0.34402520  0.38743515    -0.06100
C961        C  0.65843634  0.30237739  0.38929021    -0.06900
C962        C  0.70017639  0.35335877  0.39209405    -0.06800
C963        C  0.64817873  0.34326029  0.46809499    -0.06100
C964        C  0.65823791  0.30184340  0.47041159    -0.06900
C965        C  0.69977587  0.35278922  0.47208163    -0.06800
C966        C  0.62793700  0.35242298  0.49009208    -0.32200
N967        N  0.61639990  0.35931899  0.42569254     0.14300
C968        C  0.62844613  0.35393688  0.36267189    -0.32200
H969        H  0.62330190  0.35749777  0.30342304     0.16300
C970        C  0.64115378  0.27173540  0.49278222    -0.31100
N971        N  0.63232470  0.25417921  0.42898862     0.13100
C972        C  0.64142456  0.27251108  0.36559474    -0.31100
C973        C  0.72915261  0.36987212  0.49840315    -0.31400
N974        N  0.74734043  0.38097673  0.43632707     0.13600
H975        H  0.73686008  0.37315443  0.55822750     0.16200
C976        C  0.72994973  0.37072150  0.37100475    -0.31400
H977        H  0.73841889  0.37511899  0.31267449     0.16200
H978        H  0.63505404  0.26450957  0.30695570     0.16200
H979        H  0.62276639  0.35501817  0.54874028     0.16300
H980        H  0.63423619  0.26298926  0.55073169     0.16200
O981        O  0.54094065  0.48731853  0.05165835    -0.88300
C982        C  0.54541636  0.04895679  0.88565357     0.87800
Mg983      Mg  0.50911064  0.43964913  0.04962642     1.58100
O984        O  0.51209421  0.05241830  0.05803773    -0.88000
O985        O  0.55312630  0.02594197  0.13036434    -0.75300
C986        C  0.87656039  0.43354480  0.97762557     0.92800
O987        O  0.52415097  0.47539612  0.87082917    -0.75100
O988        O  0.89076209  0.41880083  0.96931151    -0.82600
Mg989      Mg  0.56580237  0.00799911  0.95035661     1.58000
C990        C  0.93250945  0.05817665  0.05073865     0.92700
O991        O  0.60963148  0.03938475  0.01819206    -0.80900
H992        H  0.51423373  0.05848755  0.17238695    -0.06300
C993        C  0.95211513  0.50134619  0.89445136     0.87700
O994        O  0.97903670  0.44858777  0.13784126    -0.75400
O995        O  0.55098526  0.04130107  0.94989080    -0.88200
O996        O  0.95962198  0.07145060  0.02749938    -0.81000
C997        C  0.55533839  0.12599664  0.96892194     0.92900
C998        C  0.62323461  0.06648909  0.04361887     0.92700
Mg999      Mg  0.93512120  0.49442913  0.06322824     1.58000
O1000       O  0.89034016  0.46113422  0.99961652    -0.80900
O1001       O  0.97324035  0.02546955  0.13590993    -0.75200
O1002       O  0.56922570  0.11168311  0.99154006    -0.81000
O1003       O  0.58059846  0.47219152  0.94257304    -0.82700
O1004       O  0.93199524  0.39088789  0.03006462    -0.81000
C1005       C  0.00021090  0.04620181  0.12497897     0.87100
O1006       O  0.95040104  0.46136091  0.06633886    -0.88200
O1007       O  0.95888901  0.01340463  0.95400713    -0.88300
O1008       O  0.94537764  0.47386774  0.88423634    -0.75300
Mg1009     Mg  0.55931502  0.06670389  0.05451657     1.58000
O1010       O  0.52675575  0.11222328  0.95917965    -0.82700
H1011       H  0.54937708  0.48520914  0.16471569    -0.06400
O1012       O  0.98801198  0.44943459  0.95481285    -0.88000
H1013       H  0.98363342  0.44254516  0.84066414    -0.06300
H1014       H  0.94660693  0.45630460  0.18129182    -0.06400
C1015       C  0.49762098  0.45411667  0.88379219     0.87100
C1016       C  0.54695274  0.99872609  0.11831558     0.87700
C1017       C  0.95785961  0.45521321  0.13023902     0.87800
H1018       H  0.95124802  0.01568010  0.84052598    -0.06400
O1019       O  0.52441748  0.05567281  0.87546786    -0.75400
Mg1020     Mg  0.94077468  0.43452858  0.96345950     1.58000
H1021       H  0.55810998  0.04899853  0.83640590    -0.06400
C1022       C  0.56754722  0.44355373  0.95234452     0.92700
O1023       O  0.97536660  0.39086657  0.05420177    -0.82700
C1024       C  0.94669533  0.37710018  0.04933581     0.92800
O1025       O  0.60924336  0.08137648  0.05279659    -0.82700
Mg1026     Mg  0.99127720  0.06110643  0.95827015     1.58200
O1027       O  0.54088024  0.42898899  0.97873968    -0.81000
O1028       O  0.91762269  0.02936151  0.05747176    -0.82700
O1029       O  0.98666017  0.04043468  0.44646783    -0.88300
C1030       C  0.54902216  0.04667105  0.61207356     0.87800
Mg1031     Mg  0.93954266  0.00851710  0.45352544     1.58100
O1032       O  0.55058690  0.00997944  0.44316832    -0.88000
O1033       O  0.52512447  0.05158550  0.36615907    -0.75300
C1034       C  0.93409911  0.37779266  0.54890824     0.92800
O1035       O  0.97656250  0.02827834  0.62980800    -0.75100
O1036       O  0.91944014  0.39214015  0.55624908    -0.82600
Mg1037     Mg  0.50945269  0.06869761  0.54525262     1.58000
C1038       C  0.55264941  0.42682276  0.45757529     0.92700
O1039       O  0.54191324  0.11169340  0.47629245    -0.80900
H1040       H  0.55700745  0.01043043  0.32946676    -0.06300
C1041       C  0.00280554  0.45521818  0.61895489     0.87700
O1042       O  0.94601514  0.47585994  0.37300055    -0.75400
O1043       O  0.54107937  0.05168493  0.54751242    -0.88200
O1044       O  0.56776163  0.45443218  0.47921296    -0.81000
C1045       C  0.62395131  0.05424134  0.53130116     0.92900
C1046       C  0.56854195  0.12389571  0.44976625     0.92700
Mg1047     Mg  0.99224575  0.43298993  0.45288593     1.58000
O1048       O  0.96094001  0.39110112  0.52393306    -0.80900
O1049       O  0.52229954  0.46917933  0.36774889    -0.75200
O1050       O  0.60941543  0.06759859  0.50664063    -0.81000
O1051       O  0.97372410  0.08422182  0.54942952    -0.82700
O1052       O  0.89083337  0.43292361  0.48809386    -0.81000
C1053       C  0.54363812  0.49613103  0.37642307     0.87100
O1054       O  0.96039657  0.44971109  0.44939738    -0.88200
O1055       O  0.51211645  0.45848806  0.55195348    -0.88300
O1056       O  0.97599102  0.44993769  0.63027508    -0.75300
Mg1057     Mg  0.56555274  0.05780478  0.44267056     1.58000
O1058       O  0.61081139  0.02554645  0.54115877    -0.82700
H1059       H  0.98281828  0.04588696  0.33248366    -0.06400
O1060       O  0.95039679  0.49107086  0.55325745    -0.88000
H1061       H  0.94531819  0.49092657  0.66753500    -0.06300
H1062       H  0.95226376  0.44136347  0.33623504    -0.06400
C1063       C  0.95544379  0.00123358  0.62059726     0.87100
C1064       C  0.49860023  0.04692987  0.37836929     0.87700
C1065       C  0.95265825  0.45476035  0.38463844     0.87800
H1066       H  0.51531778  0.45363744  0.66645901    -0.06400
O1067       O  0.55564129  0.02553966  0.62348047    -0.75400
Mg1068     Mg  0.93532415  0.44308516  0.55332130     1.58000
H1069       H  0.54958991  0.06011295  0.66056231    -0.06400
C1070       C  0.94512131  0.07031209  0.54162568     0.92700
O1071       O  0.89075871  0.47602025  0.45591136    -0.82700
C1072       C  0.87701606  0.44723560  0.46482120     0.92800
O1073       O  0.58213101  0.10862584  0.44019212    -0.82700
Mg1074     Mg  0.55956620  0.48980686  0.54393773     1.58200
O1075       O  0.93079492  0.04279129  0.51911685    -0.81000
O1076       O  0.52394351  0.41332394  0.45196663    -0.82700
C1077       C  0.58715756  0.20547698  0.39992923    -0.20200
C1078       C  0.61682853  0.22151869  0.42910800    -0.06800
C1079       C  0.63139075  0.20536216  0.45761146     0.14100
C1080       C  0.61540933  0.17350142  0.46055648    -0.20300
C1081       C  0.58507311  0.15727596  0.43566056    -0.06800
C1082       C  0.57108652  0.17349726  0.40261467     0.14100
C1083       C  0.53967101  0.15722292  0.36805386    -0.23600
H1084       H  0.57648567  0.21810914  0.37601512     0.15400
H1085       H  0.62643266  0.16123459  0.48473795     0.15400
C1086       C  0.66400948  0.22186380  0.48380750    -0.23600
H1087       H  0.53276611  0.17330298  0.34162026     0.05600
H1088       H  0.52336963  0.14408665  0.41350571     0.08800
H1089       H  0.53859040  0.14158629  0.32237508     0.08800
H1090       H  0.66681517  0.23623448  0.53430798     0.08800
H1091       H  0.67813816  0.23642291  0.43583791     0.08800
H1092       H  0.67237725  0.20584049  0.50126802     0.05600
C1093       C  0.79683317  0.38545315  0.41260320    -0.20200
C1094       C  0.77978499  0.39827175  0.43982170    -0.06800
C1095       C  0.79473758  0.42761847  0.47161491     0.14100
C1096       C  0.82645030  0.44332996  0.47653944    -0.20300
C1097       C  0.84367626  0.43013154  0.45214484    -0.06800
C1098       C  0.82856584  0.40078593  0.41915672     0.14100
C1099       C  0.84561993  0.38567479  0.38945355    -0.23600
H1100       H  0.78508076  0.36296115  0.38788138     0.15400
H1101       H  0.83783195  0.46575831  0.50174230     0.15400
C1102       C  0.77720229  0.44249307  0.49929709    -0.23600
H1103       H  0.83027412  0.36375845  0.36111354     0.05600
H1104       H  0.85747076  0.38074335  0.43800077     0.08800
H1105       H  0.86225250  0.40068389  0.34615552     0.08800
H1106       H  0.76279934  0.42930340  0.54830798     0.08800
H1107       H  0.76272632  0.44366347  0.45130990     0.08800
H1108       H  0.79238988  0.46595988  0.51961048     0.05600
C1109       C  0.55504551  0.37852965  0.46529345    -0.20200
C1110       C  0.56866196  0.40929456  0.44215980    -0.06800
C1111       C  0.59724989  0.42245899  0.40681653     0.14100
C1112       C  0.61182244  0.40496809  0.39858527    -0.20300
C1113       C  0.59888530  0.37487887  0.42587383    -0.06800
C1114       C  0.56993775  0.36132231  0.45821228     0.14100
C1115       C  0.55469639  0.32859976  0.48448601    -0.23600
H1116       H  0.53301697  0.36812745  0.49144732     0.15400
H1117       H  0.63398469  0.41509954  0.37329739     0.15400
C1118       C  0.61238158  0.45471172  0.37661773    -0.23600
H1119       H  0.53155693  0.32108953  0.50524638     0.05600
H1120       H  0.56782091  0.32537594  0.53274095     0.08800
H1121       H  0.55295454  0.31392513  0.43554611     0.08800
H1122       H  0.61848138  0.47077915  0.42517828     0.08800
H1123       H  0.59698447  0.45792213  0.33507907     0.08800
H1124       H  0.63350643  0.46045554  0.34605299     0.05600
C1125       C  0.61547409  0.21004845  0.98002089    -0.20200
C1126       C  0.60121445  0.22400993  0.93886551    -0.06800
C1127       C  0.57258394  0.20579962  0.90433435     0.14100
C1128       C  0.55851123  0.17398999  0.91380242    -0.20300
C1129       C  0.57257066  0.15973484  0.95604164    -0.06800
C1130       C  0.60187939  0.17835041  0.98860218     0.14100
C1131       C  0.61910237  0.16553034  0.03399245    -0.23600
H1132       H  0.63761501  0.22430773  0.00561095     0.15400
H1133       H  0.53625419  0.16021871  0.88829330     0.15400
C1134       C  0.55647944  0.21993487  0.85974814    -0.23600
H1135       H  0.64121930  0.18364394  0.05614981     0.05600
H1136       H  0.62380450  0.15085249  0.99626661     0.08800
H1137       H  0.60593809  0.15234231  0.08476897     0.08800
H1138       H  0.56953574  0.23220622  0.80804266     0.08800
H1139       H  0.55384546  0.23608400  0.89710550     0.08800
H1140       H  0.53366941  0.20255141  0.83949109     0.05600
C1141       C  0.79264432  0.41222582  0.97304943    -0.20200
C1142       C  0.77943367  0.38346993  0.93964664    -0.06800
C1143       C  0.79796154  0.37153796  0.91676632     0.14100
C1144       C  0.82942319  0.38866872  0.92818435    -0.20300
C1145       C  0.84305087  0.41760400  0.96262162    -0.06800
C1146       C  0.82404198  0.42949499  0.98493326     0.14100
C1147       C  0.83609754  0.45985104  0.02323022    -0.23600
H1148       H  0.77800656  0.42094139  0.99105341     0.15400
H1149       H  0.84336147  0.37902468  0.91101237     0.15400
C1150       C  0.78432959  0.34018657  0.88339804    -0.23600
H1151       H  0.81778537  0.46491801  0.03765913     0.05600
H1152       H  0.85154070  0.47817263  0.98363162     0.08800
H1153       H  0.84811693  0.46005786  0.07817046     0.08800
H1154       H  0.77212485  0.33925861  0.82830141     0.08800
H1155       H  0.76827950  0.32332727  0.92498747     0.08800
H1156       H  0.80183457  0.33369065  0.87118107     0.05600
C1157       C  0.56752235  0.39509194  0.92336586    -0.20200
C1158       C  0.58415348  0.42666550  0.93609203    -0.06800
C1159       C  0.61624922  0.44080433  0.93934669     0.14100
C1160       C  0.63039248  0.42301114  0.93177348    -0.20300
C1161       C  0.61367589  0.39166897  0.92126481    -0.06800
C1162       C  0.58201099  0.37750337  0.91601000     0.11500
C1163       C  0.56374006  0.34375954  0.90471862    -0.23600
H1164       H  0.54308305  0.38399108  0.92066538     0.15400
H1165       H  0.65476625  0.43337761  0.93623307     0.15400
C1166       C  0.63606012  0.47426879  0.95442282    -0.23600
H1167       H  0.53912881  0.33600128  0.90246713     0.05600
H1168       H  0.56838027  0.33168711  0.95335063     0.08800
H1169       H  0.56994744  0.33756592  0.84956920     0.08800
H1170       H  0.63011006  0.48028487  0.01021230     0.08800
H1171       H  0.63336848  0.48787218  0.90643438     0.08800
H1172       H  0.66036340  0.48071404  0.95826108     0.05600
C1173       C  0.67383758  0.31195979  0.64102820    -0.20200
C1174       C  0.67120097  0.33463581  0.59780178    -0.06800
C1175       C  0.67550287  0.36065161  0.63865684     0.14100
C1176       C  0.67423435  0.35937587  0.71956601    -0.20300
C1177       C  0.67108274  0.33393884  0.76249353    -0.06800
C1178       C  0.67494241  0.31183724  0.72219526     0.14100
C1179       C  0.68257917  0.28910877  0.76083805    -0.23600
H1180       H  0.67739159  0.29528629  0.61184234     0.15400
H1181       H  0.67784885  0.37954670  0.74914958     0.15400
C1182       C  0.68363961  0.39105178  0.60125285    -0.23600
H1183       H  0.70421893  0.29233015  0.73802922     0.05600
H1184       H  0.66468378  0.26566996  0.74730296     0.08800
H1185       H  0.68570444  0.29143942  0.82424479     0.08800
H1186       H  0.66595106  0.39733046  0.61295875     0.08800
H1187       H  0.68683708  0.39198375  0.53819805     0.08800
H1188       H  0.70536715  0.40865000  0.62664090     0.05600
C1189       C  0.67446721  0.36069958  0.13748613    -0.20200
C1190       C  0.67179698  0.33539772  0.09786461    -0.06800
C1191       C  0.67665766  0.31389473  0.14201554     0.14100
C1192       C  0.67597223  0.31426628  0.22288398    -0.20300
C1193       C  0.67231446  0.33633172  0.26227845    -0.06800
C1194       C  0.67591478  0.36208723  0.21849895     0.14100
C1195       C  0.68362815  0.39229127  0.25325362    -0.23600
H1196       H  0.67762848  0.38069919  0.10547333     0.15400
H1197       H  0.68019469  0.29800768  0.25520640     0.15400
C1198       C  0.68459799  0.29135652  0.10801058    -0.23600
H1199       H  0.70510465  0.41018331  0.22866110     0.05600
H1200       H  0.68711932  0.39310886  0.31667796     0.08800
H1201       H  0.66560229  0.39817617  0.23838292     0.08800
H1202       H  0.68699989  0.29309876  0.04459912     0.08800
H1203       H  0.66718031  0.26787456  0.12330640     0.08800
H1204       H  0.70664950  0.29525367  0.13285084     0.05600
C1205       C  0.89941487  0.07538294  0.51475275    -0.20200
C1206       C  0.92769775  0.08677171  0.55277269    -0.06800
C1207       C  0.93859958  0.11381686  0.59632683     0.14100
C1208       C  0.92134604  0.12887938  0.59824228    -0.20300
C1209       C  0.89380792  0.11795610  0.55732062    -0.06800
C1210       C  0.88242400  0.09050357  0.51641028     0.14100
C1211       C  0.85184718  0.07640440  0.47640026    -0.23600
H1212       H  0.89063966  0.05468950  0.48168697     0.15400
H1213       H  0.92953967  0.14961996  0.63085863     0.15400
C1214       C  0.96792946  0.12677406  0.64202683    -0.23600
H1215       H  0.84532547  0.05351516  0.45390669     0.05600
H1216       H  0.85195361  0.09058208  0.42625190     0.08800
H1217       H  0.83440056  0.07389647  0.51775210     0.08800
H1218       H  0.98719948  0.13457138  0.60240229     0.08800
H1219       H  0.96769716  0.10930291  0.68290014     0.08800
H1220       H  0.97164773  0.14667974  0.67646908     0.05600
C1221       C  0.93401529  0.32860974  0.53578272    -0.20200
C1222       C  0.91958164  0.34429639  0.56389733    -0.06800
C1223       C  0.89150885  0.32727405  0.60133782     0.14100
C1224       C  0.87807172  0.29540875  0.60462812    -0.20300
C1225       C  0.89180322  0.28009160  0.57196239    -0.06800
C1226       C  0.92053145  0.29686187  0.53959150     0.14100
C1227       C  0.93726491  0.28130806  0.51069421    -0.23600
H1228       H  0.95577200  0.34110544  0.50864280     0.15400
H1229       H  0.85620823  0.28214762  0.63080480     0.15400
C1230       C  0.87546154  0.34210623  0.63838179    -0.23600
H1231       H  0.96026960  0.29794235  0.49130041     0.05600
H1232       H  0.92496917  0.26668192  0.46084627     0.08800
H1233       H  0.93961165  0.26718674  0.55789691     0.08800
H1234       H  0.86809090  0.35343989  0.59365002     0.08800
H1235       H  0.89070745  0.35889996  0.68159859     0.08800
H1236       H  0.85494793  0.32527077  0.66899953     0.05600
C1237       C  0.70686422  0.08161571  0.58940274    -0.20200
C1238       C  0.72068423  0.11081621  0.55639786    -0.06800
C1239       C  0.70272205  0.12200211  0.52021929     0.14100
C1240       C  0.67140283  0.10314480  0.51462663    -0.20300
C1241       C  0.65726298  0.07317061  0.54446300    -0.06800
C1242       C  0.67542773  0.06251956  0.58386203     0.14100
C1243       C  0.66224858  0.03136981  0.62074233    -0.23600
H1244       H  0.72099759  0.07353811  0.61807967     0.15400
H1245       H  0.65799519  0.11194849  0.48536161     0.15400
C1246       C  0.71645250  0.15414012  0.48943194    -0.23600
H1247       H  0.67975490  0.02779320  0.65210264     0.05600
H1248       H  0.65195266  0.01367643  0.57570539     0.08800
H1249       H  0.64501868  0.02848037  0.66326475     0.08800
H1250       H  0.73151637  0.15741567  0.44071994     0.08800
H1251       H  0.72958465  0.17025194  0.53625368     0.08800
H1252       H  0.69890778  0.15980907  0.46761740     0.05600
C1253       C  0.93344715  0.10811785  0.04081631    -0.20200
C1254       C  0.91805075  0.07737252  0.06511832    -0.06800
C1255       C  0.88912676  0.06603365  0.09825848     0.14100
C1256       C  0.87614428  0.08509380  0.10219668    -0.20300
C1257       C  0.89097401  0.11493184  0.07352562    -0.06800
C1258       C  0.92021270  0.12688045  0.04448069     0.14100
C1259       C  0.93751117  0.15955553  0.01826129    -0.23600
H1260       H  0.95573867  0.11752222  0.01663008     0.15400
H1261       H  0.85374984  0.07643473  0.12529374     0.15400
C1262       C  0.87144206  0.03402455  0.12902036    -0.23600
H1263       H  0.96062399  0.16568071  0.99986905     0.05600
H1264       H  0.93956533  0.17463142  0.06653515     0.08800
H1265       H  0.92567070  0.16374020  0.96841981     0.08800
H1266       H  0.88505824  0.02959858  0.17376095     0.08800
H1267       H  0.86521556  0.01779429  0.08097725     0.08800
H1268       H  0.85012146  0.02987273  0.15602177     0.05600
C1269       C  0.94175313  0.32650139  0.02651446    -0.20200
C1270       C  0.93004853  0.34366883  0.06007968    -0.06800
C1271       C  0.90208353  0.32844219  0.09803834     0.14100
C1272       C  0.88619115  0.29655656  0.09913377    -0.20300
C1273       C  0.89717813  0.27950484  0.06214953    -0.06800
C1274       C  0.92554841  0.29460955  0.02649961     0.14100
C1275       C  0.93909720  0.27725231  0.98998569    -0.23600
H1276       H  0.96325071  0.33812841  0.99774302     0.15400
H1277       H  0.86461813  0.28471374  0.12737157     0.15400
C1278       C  0.88910219  0.34552253  0.13872260    -0.23600
H1279       H  0.96229870  0.29264821  0.96954171     0.05600
H1280       H  0.92528198  0.26458577  0.93915529     0.08800
H1281       H  0.94034973  0.26110907  0.03289722     0.08800
H1282       H  0.88325147  0.35882212  0.09627626     0.08800
H1283       H  0.90575888  0.36102790  0.18198133     0.08800
H1284       H  0.86815233  0.32989420  0.16965279     0.05600
C1285       C  0.70472447  0.12354087  0.10110089    -0.20200
C1286       C  0.72056365  0.11179965  0.06211202    -0.06800
C1287       C  0.70445381  0.08337233  0.02592531     0.14100
C1288       C  0.67277702  0.06867141  0.02362180    -0.20300
C1289       C  0.65660986  0.08145382  0.05754762    -0.06800
C1290       C  0.67300599  0.10874855  0.09994893     0.14100
C1291       C  0.65764056  0.12238473  0.14530675    -0.23600
H1292       H  0.71741930  0.14483027  0.13134000     0.15400
H1293       H  0.66067392  0.04736428  0.99320596     0.15400
C1294       C  0.72057261  0.06803810  0.99194259    -0.23600
H1295       H  0.67409230  0.14211166  0.17983214     0.05600
H1296       H  0.64153799  0.10517189  0.18615607     0.08800
H1297       H  0.64560725  0.13067981  0.10555693     0.08800
H1298       H  0.73575966  0.06601105  0.03653686     0.08800
H1299       H  0.73397936  0.08120956  0.94163801     0.08800
H1300       H  0.70445500  0.04483552  0.97152490     0.05600
C1301       C  0.82666124  0.14185321  0.85803992    -0.20200
C1302       C  0.82888921  0.16733599  0.89584002    -0.06800
C1303       C  0.82314839  0.18781655  0.84975748     0.14100
C1304       C  0.82490895  0.18738590  0.76907045    -0.20300
C1305       C  0.82916950  0.16529425  0.73157452    -0.06800
C1306       C  0.82502564  0.13970329  0.77700481     0.14100
C1307       C  0.81538867  0.10874861  0.74431456    -0.23600
H1308       H  0.82374483  0.12227166  0.89177442     0.15400
H1309       H  0.82098009  0.20350127  0.73495733     0.15400
C1310       C  0.81240822  0.20855086  0.88123774    -0.23600
H1311       H  0.79420616  0.09182985  0.77223749     0.05600
H1312       H  0.83295017  0.10201978  0.75707804     0.08800
H1313       H  0.81021032  0.10725346  0.68152589     0.08800
H1314       H  0.82921824  0.23261311  0.86938670     0.08800
H1315       H  0.80768568  0.20530565  0.94372281     0.08800
H1316       H  0.79078448  0.20373352  0.85173951     0.05600
C1317       C  0.82733809  0.19081797  0.26890800    -0.20200
C1318       C  0.82928090  0.16728706  0.23171753    -0.06800
C1319       C  0.82269739  0.14093815  0.27709886     0.14100
C1320       C  0.82462634  0.14314598  0.35790279    -0.20300
C1321       C  0.82900561  0.16948161  0.39553886    -0.06800
C1322       C  0.82488707  0.19099308  0.34949527     0.14100
C1323       C  0.81397795  0.21165274  0.38042276    -0.23600
H1324       H  0.82509314  0.20792093  0.23460345     0.15400
H1325       H  0.82073886  0.12324795  0.39188204     0.15400
C1326       C  0.81070155  0.10949884  0.24461068    -0.23600
H1327       H  0.79279336  0.20725046  0.34913186     0.05600
H1328       H  0.83098969  0.23577470  0.37029032     0.08800
H1329       H  0.80830285  0.20768941  0.44237723     0.08800
H1330       H  0.82664582  0.10076200  0.25857458     0.08800
H1331       H  0.80611269  0.10824682  0.18158141     0.08800
H1332       H  0.78876801  0.09399631  0.27167080     0.05600
C1333       C  0.83115138  0.66694444  0.14344431     0.30100
C1334       C  0.83113215  0.66725174  0.98443348     0.30100
C1335       C  0.84775259  0.65176695  0.10666341    -0.06100
C1336       C  0.80025836  0.65184671  0.10250035    -0.06900
C1337       C  0.84732286  0.69859741  0.10380933    -0.06800
C1338       C  0.84744360  0.65151488  0.02575267    -0.06100
C1339       C  0.80026101  0.65191466  0.02238672    -0.06900
C1340       C  0.84770269  0.69865958  0.02292426    -0.06800
C1341       C  0.86508442  0.63896239  0.00502460    -0.32200
N1342       N  0.87558888  0.63147828  0.07040274     0.14300
C1343       C  0.86566349  0.63963458  0.13259734    -0.32200
H1344       H  0.87142054  0.63713370  0.19207574     0.16300
C1345       C  0.77065039  0.63644618  0.99720482    -0.31100
N1346       N  0.75282974  0.62682407  0.06014158     0.13100
C1347       C  0.77062695  0.63642851  0.12480801    -0.31100
C1348       C  0.86703440  0.72803504  0.99925547    -0.31400
N1349       N  0.87754332  0.74574681  0.06276438     0.13600
H1350       H  0.87328321  0.73600934  0.94047974     0.16200
C1351       C  0.86614023  0.72812238  0.12673871    -0.31400
H1352       H  0.87194222  0.73629449  0.18540971     0.16200
H1353       H  0.76256701  0.63209651  0.18352415     0.16200
H1354       H  0.87015226  0.63552284  0.94697776     0.16300
H1355       H  0.76263209  0.63264905  0.93760893     0.16200
C1356       C  0.83091868  0.66787280  0.48448725     0.30100
C1357       C  0.83030381  0.66562404  0.64349437     0.30100
C1358       C  0.84724261  0.65186190  0.52419526    -0.06100
C1359       C  0.84708614  0.69878536  0.52535119    -0.06900
C1360       C  0.79989288  0.65198761  0.52158333    -0.06800
C1361       C  0.84724133  0.65101664  0.60513701    -0.06100
C1362       C  0.84644333  0.69774299  0.60614884    -0.06900
C1363       C  0.79950883  0.65086006  0.60171969    -0.06800
C1364       C  0.86609719  0.63964105  0.62914177    -0.32200
N1365       N  0.87658255  0.63278160  0.56564696     0.14300
C1366       C  0.86597212  0.64084489  0.50151581    -0.32200
H1367       H  0.87201657  0.63924518  0.44298904     0.16300
C1368       C  0.86373301  0.72726617  0.63118983    -0.31100
N1369       N  0.87455503  0.74584279  0.56849544     0.13100
C1370       C  0.86506935  0.72869642  0.50385421    -0.31100
C1371       C  0.76970372  0.63506242  0.62285493    -0.31400
N1372       N  0.75218847  0.62689818  0.55748173     0.13600
H1373       H  0.76134431  0.62965558  0.68126533     0.16200
C1374       C  0.77042881  0.63679901  0.49529208    -0.31400
H1375       H  0.76285488  0.63256265  0.43548006     0.16200
H1376       H  0.87074513  0.73748354  0.44550672     0.16200
H1377       H  0.87238167  0.63714788  0.68810444     0.16300
H1378       H  0.86871647  0.73489345  0.69044282     0.16200
C1379       C  0.66788764  0.83352269  0.01052316     0.30100
C1380       C  0.66711479  0.83234051  0.85188989     0.30100
C1381       C  0.65762416  0.85458814  0.96876505    -0.06100
C1382       C  0.69796596  0.84254311  0.97244241    -0.06900
C1383       C  0.64587804  0.80283250  0.97339272    -0.06800
C1384       C  0.65724700  0.85408182  0.88749243    -0.06100
C1385       C  0.69768461  0.84187993  0.89251963    -0.06900
C1386       C  0.64533878  0.80213612  0.89275690    -0.06800
C1387       C  0.63900698  0.86614880  0.86200126    -0.32200
N1388       N  0.62935524  0.87457428  0.92417610     0.14300
C1389       C  0.63937978  0.86655348  0.98913101    -0.32200
H1390       H  0.63244080  0.86802695  0.04671265     0.16300
C1391       C  0.72743319  0.85546199  0.87000808    -0.31100
N1392       N  0.74547132  0.86401041  0.93454349     0.13100
C1393       C  0.72768219  0.85658520  0.99726397    -0.31100
C1394       C  0.62495987  0.77270038  0.87171065    -0.31400
N1395       N  0.61380676  0.75561934  0.93689979     0.13600
H1396       H  0.61995790  0.76388947  0.81359618     0.16200
C1397       C  0.62604467  0.77393900  0.99904448    -0.31400
H1398       H  0.62188374  0.76629832  0.05869123     0.16200
H1399       H  0.73586357  0.86253042  0.05628916     0.16200
H1400       H  0.63183304  0.86731582  0.80304084     0.16300
H1401       H  0.73539075  0.86065022  0.81125816     0.16200
C1402       C  0.66872609  0.83320628  0.35161778     0.30100
C1403       C  0.66827226  0.83190550  0.51048909     0.30100
C1404       C  0.64824769  0.84403090  0.38897177    -0.06100
C1405       C  0.65658294  0.80134867  0.39013786    -0.06900
C1406       C  0.69929128  0.85172709  0.39311257    -0.06800
C1407       C  0.64803170  0.84320390  0.46967642    -0.06100
C1408       C  0.65641113  0.80070111  0.47121205    -0.06900
C1409       C  0.69899018  0.85107689  0.47316392    -0.06800
C1410       C  0.62857397  0.85329240  0.49212023    -0.32200
N1411       N  0.61742809  0.86077436  0.42797140     0.14300
C1412       C  0.62888999  0.85485316  0.36465344    -0.32200
H1413       H  0.62372179  0.85854152  0.30554798     0.16300
C1414       C  0.63967512  0.77050465  0.49332734    -0.31100
N1415       N  0.63100468  0.75304845  0.42931780     0.13100
C1416       C  0.63997489  0.77149649  0.36609984    -0.31100
C1417       C  0.72838543  0.86815127  0.49922174    -0.31400
N1418       N  0.74641289  0.87923488  0.43690428     0.13600
H1419       H  0.73620351  0.87172949  0.55896051     0.16200
C1420       C  0.72898483  0.86908908  0.37170396    -0.31400
H1421       H  0.73736077  0.87374180  0.31327869     0.16200
H1422       H  0.63389576  0.76354669  0.30734811     0.16200
H1423       H  0.62355599  0.85595865  0.55087607     0.16300
H1424       H  0.63291831  0.76157816  0.55120058     0.16200
O1425       O  0.54015572  0.98755625  0.05306337    -0.88300
C1426       C  0.54350774  0.54723890  0.88359729     0.87800
Mg1427     Mg  0.50790997  0.93997858  0.04746205     1.58100
O1428       O  0.51236191  0.55142622  0.05924361    -0.88000
O1429       O  0.55473471  0.52609400  0.12799146    -0.75300
C1430       C  0.87515669  0.93346245  0.96944166     0.92800
O1431       O  0.52619949  0.97717976  0.87032599    -0.75100
O1432       O  0.88953696  0.91893311  0.96035731    -0.82600
Mg1433     Mg  0.56495385  0.50710871  0.94654417     1.58000
C1434       C  0.93412277  0.55859679  0.05373520     0.92700
O1435       O  0.60960124  0.53929405  0.01042135    -0.80900
H1436       H  0.51611126  0.55841315  0.17335459    -0.06300
C1437       C  0.95143806  0.00188019  0.88924680     0.87700
O1438       O  0.97653002  0.94682577  0.13059943    -0.75400
O1439       O  0.54993380  0.54012634  0.94748096    -0.88200
O1440       O  0.96113482  0.57185110  0.02968083    -0.81000
C1441       C  0.55388287  0.62469325  0.96710672     0.92900
C1442       C  0.62324488  0.56644984  0.03556693     0.92700
Mg1443     Mg  0.93327366  0.99375220  0.05742255     1.58000
O1444       O  0.88877546  0.96098057  0.99197073    -0.80900
O1445       O  0.97560227  0.52682537  0.13955570    -0.75200
O1446       O  0.56818744  0.61065451  0.98831014    -0.81000
O1447       O  0.58119101  0.97275943  0.94765827    -0.82700
O1448       O  0.93047940  0.89025416  0.01970464    -0.81000
C1449       C  0.00252715  0.54740376  0.12720654     0.87100
O1450       O  0.94864543  0.96060229  0.05922721    -0.88200
O1451       O  0.96014208  0.51329505  0.95860461    -0.88300
O1452       O  0.94486043  0.97449562  0.87802591    -0.75300
Mg1453     Mg  0.55942695  0.56611868  0.05154066     1.58000
O1454       O  0.52524515  0.61056249  0.95880625    -0.82700
H1455       H  0.54678271  0.98466794  0.16687841    -0.06400
O1456       O  0.98676124  0.94878331  0.94801606    -0.88000
H1457       H  0.98308698  0.94312980  0.83340699    -0.06300
H1458       H  0.94404907  0.95452290  0.17382797    -0.06400
C1459       C  0.49938288  0.95606199  0.88070671     0.87100
C1460       C  0.54866320  0.49889644  0.11630794     0.87700
C1461       C  0.95559127  0.95379474  0.12294134     0.87800
H1462       H  0.95152934  0.51482170  0.84543407    -0.06400
O1463       O  0.52220441  0.55356290  0.87496180    -0.75400
Mg1464     Mg  0.93957252  0.93440150  0.95533943     1.58000
H1465       H  0.55565288  0.54706594  0.83339736    -0.06400
C1466       C  0.56766369  0.94402173  0.95534614     0.92700
O1467       O  0.97320526  0.88942698  0.04713860    -0.82700
C1468       C  0.94451649  0.87597945  0.04088824     0.92800
O1469       O  0.60916847  0.58116822  0.04568108    -0.82700
Mg1470     Mg  0.99252624  0.56101120  0.96033636     1.58200
O1471       O  0.54065348  0.92964983  0.97973837    -0.81000
O1472       O  0.91942612  0.52984605  0.06185769    -0.82700
O1473       O  0.98843721  0.54149661  0.44117678    -0.88300
C1474       C  0.54859439  0.54528649  0.60920880     0.87800
Mg1475     Mg  0.94104201  0.50993167  0.44948939     1.58100
O1476       O  0.54978499  0.50850590  0.44016852    -0.88000
O1477       O  0.52436842  0.55020884  0.36366909    -0.75300
C1478       C  0.93252768  0.87623679  0.54745200     0.92800
O1479       O  0.97863762  0.53060443  0.62467903    -0.75100
O1480       O  0.91794432  0.89057697  0.55590930    -0.82600
Mg1481     Mg  0.50927707  0.56750843  0.54334809     1.58000
C1482       C  0.55417772  0.92872825  0.46065902     0.92700
O1483       O  0.54144181  0.61042676  0.47388047    -0.80900
H1484       H  0.55612200  0.50886286  0.32644701    -0.06300
C1485       C  0.00139953  0.95330117  0.61921481     0.87700
O1486       O  0.94482864  0.97519431  0.37513123    -0.75400
O1487       O  0.54068215  0.55036814  0.54469705    -0.88200
O1488       O  0.56914792  0.95635323  0.48217710    -0.81000
C1489       C  0.62313895  0.55255310  0.52857086     0.92900
C1490       C  0.56801901  0.62265452  0.44707305     0.92700
Mg1491     Mg  0.99091883  0.93201614  0.45243996     1.58000
O1492       O  0.95935395  0.88962205  0.52218101    -0.80900
O1493       O  0.52336101  0.97061222  0.37069184    -0.75200
O1494       O  0.60869181  0.56593947  0.50342532    -0.81000
O1495       O  0.97625391  0.58630322  0.54155233    -0.82700
O1496       O  0.88968227  0.93155322  0.49013151    -0.81000
C1497       C  0.54455442  0.99762774  0.37941146     0.87100
O1498       O  0.95894365  0.94849942  0.45023433    -0.88200
O1499       O  0.51318668  0.95998506  0.55501650    -0.88300
O1500       O  0.97456918  0.94782879  0.63112917    -0.75300
Mg1501     Mg  0.56490607  0.55640389  0.43963832     1.58000
O1502       O  0.60996019  0.52384313  0.53855123    -0.82700
H1503       H  0.98477901  0.54584624  0.32664275    -0.06400
O1504       O  0.94898734  0.98923900  0.55632017    -0.88000
H1505       H  0.94342478  0.98806297  0.67059596    -0.06300
H1506       H  0.95108155  0.94092117  0.33670945    -0.06400
C1507       C  0.95724728  0.50359230  0.61687708     0.87100
C1508       C  0.49790410  0.54563642  0.37634044     0.87700
C1509       C  0.95136092  0.95398238  0.38576377     0.87800
H1510       H  0.51637458  0.95570451  0.66974510    -0.06400
O1511       O  0.55493639  0.52397235  0.62062869    -0.75400
Mg1512     Mg  0.93396573  0.94140021  0.55468753     1.58000
H1513       H  0.54931358  0.55880260  0.65769924    -0.06400
C1514       C  0.94760072  0.57283947  0.53466030     0.92700
O1515       O  0.88941735  0.97453653  0.45850392    -0.82700
C1516       C  0.87579224  0.94575395  0.46685404     0.92800
O1517       O  0.58161331  0.60739263  0.43720950    -0.82700
Mg1518     Mg  0.56055972  0.99146597  0.54689257     1.58200
O1519       O  0.93265205  0.54515186  0.51348021    -0.81000
O1520       O  0.52547477  0.91509534  0.45516688    -0.82700
C1521       C  0.58630436  0.70422662  0.39832276    -0.20200
C1522       C  0.61574295  0.72037649  0.42896610    -0.06800
C1523       C  0.63033685  0.70430972  0.45799419     0.14100
C1524       C  0.61459417  0.67242222  0.45985613    -0.20300
C1525       C  0.58447301  0.65607586  0.43339171    -0.06800
C1526       C  0.57048860  0.67223112  0.39989874     0.14100
C1527       C  0.53939605  0.65588256  0.36347740    -0.23600
H1528       H  0.57562356  0.71678554  0.37397526     0.15400
H1529       H  0.62560286  0.66020977  0.48448077     0.15400
C1530       C  0.66274559  0.72091910  0.48586506    -0.23600
H1531       H  0.53238534  0.67194473  0.33744801     0.05600
H1532       H  0.52275909  0.64210979  0.40761667     0.08800
H1533       H  0.53900585  0.64080657  0.31715234     0.08800
H1534       H  0.66501154  0.73493550  0.53670857     0.08800
H1535       H  0.67717558  0.73583019  0.43877351     0.08800
H1536       H  0.67119338  0.70497026  0.50343059     0.05600
C1537       C  0.79577764  0.88305005  0.41771265    -0.20200
C1538       C  0.77877344  0.89659123  0.44004821    -0.06800
C1539       C  0.79360571  0.92659977  0.46737853     0.14100
C1540       C  0.82528201  0.94236107  0.47277466    -0.20300
C1541       C  0.84252621  0.92851057  0.45342141    -0.06800
C1542       C  0.82745297  0.89839267  0.42496536     0.14100
C1543       C  0.84439473  0.88230326  0.40119262    -0.23600
H1544       H  0.78400459  0.85998325  0.39655878     0.15400
H1545       H  0.83657995  0.96533704  0.49463068     0.15400
C1546       C  0.77591493  0.94195742  0.49029325    -0.23600
H1547       H  0.82904344  0.85983123  0.37543857     0.05600
H1548       H  0.85575743  0.87822333  0.45234358     0.08800
H1549       H  0.86138327  0.89617896  0.35733348     0.08800
H1550       H  0.76123360  0.92958212  0.53964365     0.08800
H1551       H  0.76166800  0.94224457  0.44056341     0.08800
H1552       H  0.79098763  0.96577667  0.50827079     0.05600
C1553       C  0.55631526  0.88032047  0.46666572    -0.20200
C1554       C  0.57029059  0.91128573  0.44530836    -0.06800
C1555       C  0.59920480  0.92461338  0.41160322     0.14100
C1556       C  0.61369089  0.90703470  0.40329123    -0.20300
C1557       C  0.60026856  0.87667375  0.42860686    -0.06800
C1558       C  0.57105605  0.86300654  0.45923409     0.14100
C1559       C  0.55538254  0.83003052  0.48326244    -0.23600
H1560       H  0.53405753  0.86978204  0.49155536     0.15400
H1561       H  0.63607067  0.91723344  0.37925530     0.15400
C1562       C  0.61474344  0.95708792  0.38302612    -0.23600
H1563       H  0.53210416  0.82247478  0.50299790     0.05600
H1564       H  0.56806065  0.82618875  0.53163043     0.08800
H1565       H  0.55392191  0.81583720  0.43345682     0.08800
H1566       H  0.62048972  0.97279099  0.43228680     0.08800
H1567       H  0.59976912  0.96070737  0.34090792     0.08800
H1568       H  0.63611639  0.96295589  0.35356591     0.05600
C1569       C  0.61390244  0.70890786  0.97741340    -0.20200
C1570       C  0.59880413  0.72292335  0.94087781    -0.06800
C1571       C  0.56951877  0.70478503  0.90988550     0.14100
C1572       C  0.55577506  0.67290637  0.91748939    -0.20300
C1573       C  0.57071993  0.65854277  0.95501697    -0.06800
C1574       C  0.60055477  0.67718924  0.98462224     0.14100
C1575       C  0.61868767  0.66439195  0.02535808    -0.23600
H1576       H  0.63650388  0.72315201  0.00046527     0.15400
H1577       H  0.53305637  0.65919598  0.89459597     0.15400
C1578       C  0.55244409  0.71913248  0.87129790    -0.23600
H1579       H  0.64118173  0.68249436  0.04544702     0.05600
H1580       H  0.62263608  0.64993656  0.98496772     0.08800
H1581       H  0.60659744  0.65102621  0.07715769     0.08800
H1582       H  0.56455575  0.73224819  0.81932145     0.08800
H1583       H  0.55033092  0.73460524  0.91226700     0.08800
H1584       H  0.52937582  0.70181218  0.85256388     0.05600
C1585       C  0.79098618  0.91118713  0.96836247    -0.20200
C1586       C  0.77783527  0.88210606  0.93688010    -0.06800
C1587       C  0.79648031  0.87043246  0.91315386     0.14100
C1588       C  0.82798997  0.88804274  0.92241595    -0.20300
C1589       C  0.84157671  0.91723950  0.95538219    -0.06800
C1590       C  0.82245189  0.92897981  0.97790953     0.14100
C1591       C  0.83446743  0.95974529  0.01394661    -0.23600
H1592       H  0.77626832  0.91976894  0.98663467     0.15400
H1593       H  0.84200897  0.87853490  0.90492148     0.15400
C1594       C  0.78296526  0.83887257  0.88115358    -0.23600
H1595       H  0.81609271  0.96474729  0.02817631     0.05600
H1596       H  0.84954397  0.97769850  0.97299510     0.08800
H1597       H  0.84687799  0.96069788  0.06874313     0.08800
H1598       H  0.77010991  0.83733598  0.82681459     0.08800
H1599       H  0.76753063  0.82216749  0.92401466     0.08800
H1600       H  0.80059911  0.83266738  0.86796548     0.05600
C1601       C  0.56750547  0.89458490  0.94101897    -0.20200
C1602       C  0.58389645  0.92665213  0.93866562    -0.06800
C1603       C  0.61554715  0.94096698  0.92541139     0.14100
C1604       C  0.62952737  0.92299251  0.91730428    -0.20300
C1605       C  0.61317593  0.89135452  0.92278680    -0.06800
C1606       C  0.58187185  0.87690768  0.93373704     0.11500
C1607       C  0.56389732  0.84282478  0.93865963    -0.23600
H1608       H  0.54341292  0.88316338  0.95042890     0.15400
H1609       H  0.65368331  0.93362447  0.90933462     0.15400
C1610       C  0.63534856  0.97502257  0.92212675    -0.23600
H1611       H  0.53951808  0.83487916  0.94686731     0.05600
H1612       H  0.57228278  0.83437579  0.98826709     0.08800
H1613       H  0.56631905  0.83290436  0.88442692     0.08800
H1614       H  0.63467523  0.98510753  0.97793092     0.08800
H1615       H  0.62773534  0.98478755  0.87382459     0.08800
H1616       H  0.65933538  0.98168788  0.91195413     0.05600
C1617       C  0.67200439  0.81030041  0.64225449    -0.20200
C1618       C  0.67030501  0.83348592  0.59906586    -0.06800
C1619       C  0.67528149  0.85968707  0.64016720     0.14100
C1620       C  0.67348856  0.85819125  0.72098625    -0.20300
C1621       C  0.66926178  0.83232212  0.76368787    -0.06800
C1622       C  0.67261526  0.80988924  0.72343050     0.14100
C1623       C  0.67931213  0.78651989  0.76214187    -0.23600
H1624       H  0.67531611  0.79346666  0.61313406     0.15400
H1625       H  0.67756204  0.87848243  0.75077354     0.15400
C1626       C  0.68469923  0.89043741  0.60320870    -0.23600
H1627       H  0.70075329  0.78909542  0.73966378     0.05600
H1628       H  0.66097241  0.76332184  0.74829139     0.08800
H1629       H  0.68237670  0.78873971  0.82557199     0.08800
H1630       H  0.66764861  0.89761624  0.61464469     0.08800
H1631       H  0.68802535  0.89137492  0.54021312     0.08800
H1632       H  0.70664553  0.90736482  0.62916964     0.05600
C1633       C  0.67377256  0.85983943  0.13848631    -0.20200
C1634       C  0.67080602  0.83438122  0.09901031    -0.06800
C1635       C  0.67551704  0.81281331  0.14326286     0.14100
C1636       C  0.67491601  0.81330150  0.22413733    -0.20300
C1637       C  0.67132327  0.83544244  0.26337474    -0.06800
C1638       C  0.67530850  0.86130915  0.21949347     0.14100
C1639       C  0.68372998  0.89172634  0.25406336    -0.23600
H1640       H  0.67717077  0.87989617  0.10637734     0.15400
H1641       H  0.67908778  0.79703770  0.25659773     0.15400
C1642       C  0.68317338  0.79006342  0.10932304    -0.23600
H1643       H  0.70530282  0.90926851  0.22908060     0.05600
H1644       H  0.68741486  0.89256872  0.31742930     0.08800
H1645       H  0.66602754  0.89809698  0.23946368     0.08800
H1646       H  0.68529871  0.79158213  0.04583329     0.08800
H1647       H  0.66572536  0.76666329  0.12517143     0.08800
H1648       H  0.70527399  0.79391880  0.13370128     0.05600
C1649       C  0.90061474  0.57309804  0.57254626    -0.20200
C1650       C  0.93084122  0.58972987  0.54947276    -0.06800
C1651       C  0.94332338  0.62150730  0.53546013     0.14100
C1652       C  0.92523122  0.63533466  0.54373576    -0.20300
C1653       C  0.89510530  0.61844237  0.56535869    -0.06800
C1654       C  0.88265924  0.58707024  0.58029096     0.14100
C1655       C  0.85001515  0.56822331  0.60133755    -0.23600
H1656       H  0.89074054  0.54886153  0.58316357     0.15400
H1657       H  0.93428959  0.65936852  0.53127531     0.15400
C1658       C  0.97488262  0.64076924  0.50665837    -0.23600
H1659       H  0.84346405  0.54384245  0.60887058     0.05600
H1660       H  0.83540316  0.57018153  0.55491368     0.08800
H1661       H  0.84593914  0.57629724  0.65648077     0.08800
H1662       H  0.97699632  0.63135772  0.45137240     0.08800
H1663       H  0.99162865  0.64118853  0.55016218     0.08800
H1664       H  0.98020985  0.66466206  0.49544480     0.05600
C1665       C  0.93226976  0.82710033  0.53262641    -0.20200
C1666       C  0.91792638  0.84269503  0.56169062    -0.06800
C1667       C  0.88991777  0.82556859  0.59943289     0.14100
C1668       C  0.87665540  0.79370395  0.60294131    -0.20300
C1669       C  0.89038750  0.77846548  0.56974752    -0.06800
C1670       C  0.91890366  0.79537015  0.53623647     0.14100
C1671       C  0.93563316  0.78003808  0.50592010    -0.23600
H1672       H  0.95389433  0.83967298  0.50489746     0.15400
H1673       H  0.85492497  0.78038067  0.62971883     0.15400
C1674       C  0.87372322  0.84026840  0.63643074    -0.23600
H1675       H  0.95856974  0.79680999  0.48639322     0.05600
H1676       H  0.92329135  0.76567032  0.45574337     0.08800
H1677       H  0.93815412  0.76574282  0.55233363     0.08800
H1678       H  0.86632454  0.85156476  0.59164987     0.08800
H1679       H  0.88887562  0.85707759  0.67973652     0.08800
H1680       H  0.85320796  0.82335863  0.66691390     0.05600
C1681       C  0.70581648  0.58031076  0.58985560    -0.20200
C1682       C  0.71985239  0.60906241  0.55425284    -0.06800
C1683       C  0.70205487  0.61991414  0.51556425     0.14100
C1684       C  0.67074786  0.60105989  0.50961630    -0.20300
C1685       C  0.65642454  0.57149184  0.54196867    -0.06800
C1686       C  0.67435046  0.56130722  0.58441707     0.14100
C1687       C  0.66082203  0.53085066  0.62509589    -0.23600
H1688       H  0.71977623  0.57253391  0.62078072     0.15400
H1689       H  0.65748222  0.60954819  0.47821930     0.15400
C1690       C  0.71590938  0.65176259  0.48271451    -0.23600
H1691       H  0.67812229  0.52768980  0.65885651     0.05600
H1692       H  0.65054444  0.51233588  0.58218471     0.08800
H1693       H  0.64349063  0.52892285  0.66608530     0.08800
H1694       H  0.73105352  0.65454686  0.43461430     0.08800
H1695       H  0.72896095  0.66831018  0.52878966     0.08800
H1696       H  0.69843744  0.65728077  0.45943819     0.05600
C1697       C  0.93437187  0.60815570  0.04142289    -0.20200
C1698       C  0.91942621  0.57761159  0.06734468    -0.06800
C1699       C  0.89061904  0.56619943  0.10125481     0.14100
C1700       C  0.87716505  0.58486940  0.10364596    -0.20300
C1701       C  0.89151972  0.61446059  0.07328525    -0.06800
C1702       C  0.92075615  0.62660071  0.04411036     0.14100
C1703       C  0.93769020  0.65918509  0.01702540    -0.23600
H1704       H  0.95661439  0.61764011  0.01690332     0.15400
H1705       H  0.85483595  0.57612286  0.12723432     0.15400
C1706       C  0.87361978  0.53457295  0.13488046    -0.23600
H1707       H  0.96087534  0.66552730  0.99879409     0.05600
H1708       H  0.93954418  0.67437682  0.06480841     0.08800
H1709       H  0.92569357  0.66296522  0.96689408     0.08800
H1710       H  0.88778120  0.53104783  0.17979802     0.08800
H1711       H  0.86726870  0.51771305  0.08838049     0.08800
H1712       H  0.85240410  0.53043900  0.16245872     0.05600
C1713       C  0.94161059  0.82514278  0.04036671    -0.20200
C1714       C  0.92713293  0.84244870  0.05356355    -0.06800
C1715       C  0.89621235  0.82707575  0.07405972     0.14100
C1716       C  0.88073170  0.79520058  0.07845155    -0.20300
C1717       C  0.89500603  0.77825156  0.06199233    -0.06800
C1718       C  0.92579880  0.79324475  0.04377821     0.14100
C1719       C  0.94184635  0.77545980  0.02839890    -0.23600
H1720       H  0.96519029  0.83652660  0.02487919     0.15400
H1721       H  0.85706683  0.78321183  0.09303192     0.15400
C1722       C  0.87922513  0.84375431  0.09234344    -0.23600
H1723       H  0.96613247  0.79061902  0.01657583     0.05600
H1724       H  0.93137807  0.76077053  0.97734364     0.08800
H1725       H  0.94020095  0.76101637  0.07960217     0.08800
H1726       H  0.87666315  0.85543822  0.03972980     0.08800
H1727       H  0.89140914  0.86051229  0.13865606     0.08800
H1728       H  0.85613337  0.82803792  0.11294927     0.05600
C1729       C  0.70485447  0.62379007  0.09189523    -0.20200
C1730       C  0.72045934  0.61060280  0.05866093    -0.06800
C1731       C  0.70422503  0.58174145  0.02489850     0.14100
C1732       C  0.67259828  0.56761138  0.02035954    -0.20300
C1733       C  0.65663290  0.58150908  0.04949944    -0.06800
C1734       C  0.67321152  0.60969336  0.08835386     0.14100
C1735       C  0.65821361  0.62524796  0.12698754    -0.23600
H1736       H  0.71772942  0.64565652  0.11944234     0.15400
H1737       H  0.66040506  0.54577445  0.99239962     0.15400
C1738       C  0.72022372  0.56549331  0.99570129    -0.23600
H1739       H  0.67476838  0.64590123  0.15838257     0.05600
H1740       H  0.64171769  0.60959317  0.16966060     0.08800
H1741       H  0.64676559  0.63258385  0.08290463     0.08800
H1742       H  0.73444378  0.56337090  0.04297407     0.08800
H1743       H  0.73466324  0.57816989  0.94632590     0.08800
H1744       H  0.70401557  0.54228980  0.97549088     0.05600
C1745       C  0.82568528  0.64048625  0.85812102    -0.20200
C1746       C  0.82858858  0.66624310  0.89587686    -0.06800
C1747       C  0.82271058  0.68674138  0.85016678     0.14100
C1748       C  0.82412175  0.68621524  0.76940645    -0.20300
C1749       C  0.82782048  0.66382196  0.73180204    -0.06800
C1750       C  0.82336257  0.63812225  0.77718926     0.14100
C1751       C  0.81284115  0.60697071  0.74465065    -0.23600
H1752       H  0.82285513  0.62094534  0.89194840     0.15400
H1753       H  0.82025378  0.70239463  0.73542209     0.15400
C1754       C  0.81198372  0.70742170  0.88209265    -0.23600
H1755       H  0.79148757  0.59052519  0.77273633     0.05600
H1756       H  0.82993719  0.59963366  0.75749239     0.08800
H1757       H  0.80769667  0.60552791  0.68183560     0.08800
H1758       H  0.82882909  0.73150753  0.87068259     0.08800
H1759       H  0.80713622  0.70395967  0.94450072     0.08800
H1760       H  0.79039421  0.70271784  0.85257561     0.05600
C1761       C  0.82637661  0.68867268  0.26935551    -0.20200
C1762       C  0.82887815  0.66556112  0.23173736    -0.06800
C1763       C  0.82309434  0.63938304  0.27694407     0.14100
C1764       C  0.82529975  0.64157077  0.35780531    -0.20300
C1765       C  0.82887402  0.66752551  0.39582696    -0.06800
C1766       C  0.82405023  0.68869777  0.35002642     0.14100
C1767       C  0.81277681  0.70901624  0.38131668    -0.23600
H1768       H  0.82361934  0.70553532  0.23533317     0.15400
H1769       H  0.82193446  0.62178954  0.39148569     0.15400
C1770       C  0.81147111  0.60803055  0.24426799    -0.23600
H1771       H  0.79139543  0.70424125  0.35051289     0.05600
H1772       H  0.82947923  0.73322176  0.37083897     0.08800
H1773       H  0.80734020  0.70511783  0.44339688     0.08800
H1774       H  0.82777914  0.59968060  0.25740237     0.08800
H1775       H  0.80657918  0.60675746  0.18136823     0.08800
H1776       H  0.78976462  0.59222457  0.27189182     0.05600
loop_ 
_geom_bond_atom_site_label_1 
_geom_bond_atom_site_label_2 
_geom_bond_distance 
_geom_bond_site_symmetry_2 
_ccdc_geom_bond_type 
C1            C3   1.541       .  S
C1            C5   1.547       .  S
C1            C4   1.529       .  S
C1          C430   1.531       .  S
C2            C6   1.548   1_556  S
C2            C8   1.542   1_556  S
C2            C7   1.529   1_556  S
C2          C414   1.533       .  S
C3           C11   1.378       .  A
C3            C6   1.398       .  A
C4           C15   1.377       .  A
C4            C7   1.384       .  A
C5           C19   1.381       .  A
C5            C8   1.398       .  A
C6            C9   1.381       .  A
C7           C13   1.375   1_554  A
C8           C16   1.379       .  A
C9           N10   1.357       .  A
C9           H22   1.082   1_554  S
N10          C11   1.354       .  A
N10         C369   1.434       .  S
C11          H12   1.082       .  S
C13          N14   1.358   1_556  A
C13          H23   1.083       .  S
N14          C15   1.358       .  A
N14         C398   1.437       .  S
C15          H21   1.083       .  S
C16          N17   1.357       .  A
C16          H18   1.081   1_554  S
N17          C19   1.357       .  A
N17         C385   1.437       .  S
C19          H20   1.082       .  S
C24          C26   1.547       .  S
C24          C28   1.529       .  S
C24          C27   1.541       .  S
C24         C433   1.533       .  S
C25          C29   1.545       .  S
C25          C31   1.530       .  S
C25          C30   1.549       .  S
C25         C417   1.533       .  S
C26          C34   1.381       .  A
C26          C29   1.399       .  A
C27          C38   1.377       .  A
C27          C30   1.398       .  A
C28          C42   1.375       .  A
C28          C31   1.386       .  A
C29          C32   1.382       .  A
C30          C36   1.382       .  A
C31          C39   1.377       .  A
C32          N33   1.356       .  A
C32          H45   1.082       .  S
N33          C34   1.356       .  A
N33         C321   1.437       .  S
C34          H35   1.082       .  S
C36          N37   1.355       .  A
C36          H46   1.082       .  S
N37          C38   1.355       .  A
N37         C337   1.436       .  S
C38          H44   1.081       .  S
C39          N40   1.357       .  A
C39          H41   1.083       .  S
N40          C42   1.358       .  A
N40         C350   1.434       .  S
C42          H43   1.082       .  S
C47          C49   1.549   1_554  S
C47          C51   1.542   1_554  S
C47          C50   1.527   1_554  S
C47         C302   1.533       .  S
C48          C52   1.552       .  S
C48          C54   1.548       .  S
C48          C53   1.534       .  S
C48         C289   1.533       .  S
C49          C57   1.383       .  A
C49          C52   1.407       .  A
C50          C61   1.375   1_556  A
C50          C53   1.380       .  A
C51          C65   1.378   1_556  A
C51          C54   1.394       .  A
C52          C55   1.387       .  A
C53          C59   1.383       .  A
C54          C62   1.384       .  A
C55          N56   1.353       .  A
C55          H68   1.082       .  S
N56          C57   1.352       .  A
N56         C273   1.439       .  S
C57          H58   1.080   1_556  S
C59          N60   1.361       .  A
C59          H69   1.081       .  S
N60          C61   1.358   1_556  A
N60         C254   1.444       .  S
C61          H67   1.083       .  S
C62          N63   1.360       .  A
C62          H64   1.080       .  S
N63          C65   1.358   1_556  A
N63         C238   1.443       .  S
C65          H66   1.082       .  S
C70          C72   1.546       .  S
C70          C74   1.532       .  S
C70          C73   1.552       .  S
C70         C305   1.532       .  S
C71          C75   1.542       .  S
C71          C77   1.530       .  S
C71          C76   1.550       .  S
C71         C286   1.533       .  S
C72          C80   1.384       .  A
C72          C75   1.395       .  A
C73          C84   1.387       .  A
C73          C76   1.403       .  A
C74          C88   1.380       .  A
C74          C77   1.383       .  A
C75          C78   1.378       .  A
C76          C82   1.384       .  A
C77          C85   1.378       .  A
C78          N79   1.356       .  A
C78          H91   1.081       .  S
N79          C80   1.358       .  A
N79         C225   1.439       .  S
C80          H81   1.082       .  S
C82          N83   1.354       .  A
C82          H92   1.081       .  S
N83          C84   1.354       .  A
N83         C190   1.437       .  S
C84          H90   1.081       .  S
C85          N86   1.357       .  A
C85          H87   1.082       .  S
N86          C88   1.358       .  A
N86         C206   1.437       .  S
C88          H89   1.083       .  S
O93         Mg95   2.140       .  S
O93        Mg545   2.155   1_554  S
O93         C572   1.235       .  S
C94         H133   1.081       .  S
C94         O107   1.235       .  S
C94         O131   1.269       .  A
Mg95       O1012   2.150   1_454  S
Mg95        O139   2.297   1_554  S
Mg95       O1023   2.263   1_455  S
Mg95        O994   2.304   1_455  S
O96        Mg121   2.140       .  S
O96       Mg1026   2.155   1_454  S
O96        C1005   1.236       .  S
O97         C128   1.270   1_545  A
O97        Mg121   2.298       .  S
C98         O100   1.273       .  A
C98         O112   1.277       .  A
C98         C257   1.497       .  S
O99         C127   1.270   1_455  A
O99        Mg545   2.298       .  S
O100       Mg132   2.270       .  S
Mg101       O107   2.143       .  S
Mg101       O537   2.154   1_546  S
Mg101       O103   2.309   1_556  S
Mg101       O543   2.295   1_545  S
Mg101       O559   2.264   1_545  S
C102        O140   1.274       .  A
C102        O108   1.275       .  A
C102        C366   1.498       .  S
O103        C110   1.277       .  A
H104       C1005   1.081       .  S
C105        H574   1.081       .  S
C105        O563   1.236       .  S
C105        O120   1.270       .  A
O106        C129   1.271       .  A
O106       Mg983   2.304       .  S
O107       Mg121   2.155   1_556  S
O108       Mg138   2.295   1_554  S
C109        O122   1.274       .  A
C109        O114   1.276       .  A
C109        C241   1.501       .  S
C110        O137   1.272       .  A
C110        C401   1.493       .  S
Mg111       O118   2.153       .  S
Mg111       O563   2.160   1_554  S
Mg111       O112   2.324   1_554  S
Mg111       O557   2.300       .  S
Mg111       O584   2.286       .  S
O113        C117   1.270       .  A
O113       Mg555   2.300   1_545  S
O114       Mg121   2.319   1_556  S
O115        C134   1.273       .  A
O115       Mg545   2.278       .  S
O116        C136   1.275       .  A
O116       Mg132   2.308   1_554  S
C117        H992   1.081       .  S
C117        O984   1.236       .  S
O118       Mg132   2.157   1_554  S
O118        C129   1.237       .  S
O119       Mg138   2.152       .  S
O119       Mg555   2.160   1_546  S
O119        C549   1.236       .  S
O120       Mg132   2.301       .  S
Mg121       O137   2.264       .  S
O122      Mg1026   2.281   1_455  S
H123        C572   1.082       .  S
O124       Mg132   2.144       .  S
O124       Mg983   2.156   1_556  S
O124       C1015   1.237       .  S
H125       C1015   1.081       .  S
H126        C129   1.082       .  S
C127       H1013   1.081       .  S
C127       O1012   1.236       .  S
C128        H567   1.082       .  S
C128        O537   1.236       .  S
H130        C549   1.081       .  S
O131      Mg1026   2.293   1_455  S
C134        O139   1.275       .  A
C134        C270   1.496       .  S
O135        C136   1.273       .  A
O135       Mg983   2.272       .  S
C136        C382   1.485       .  S
Mg138       O984   2.156   1_556  S
Mg138      O1010   2.278       .  S
Mg138      O1019   2.297       .  S
O140       Mg555   2.281   1_545  S
O141       Mg143   2.148       .  S
O141      Mg1037   2.158       .  S
O141       C1064   1.237       .  S
C142        H181   1.082       .  S
C142        O155   1.236       .  S
C142        O179   1.271       .  A
Mg143       O616   2.157   1_545  S
Mg143       O187   2.330       .  S
Mg143       O627   2.284   1_545  S
Mg143       O598   2.304   1_545  S
O144       Mg169   2.152       .  S
O144       Mg630   2.159   1_545  S
O144        C609   1.235   1_545  S
O145        C176   1.269   1_455  A
O145       Mg169   2.295       .  S
C146        O148   1.272       .  A
C146        O160   1.274       .  A
C146        C334   1.497       .  S
O147        C175   1.270       .  A
O147      Mg1037   2.301       .  S
O148       Mg180   2.280       .  S
Mg149       O155   2.147       .  S
Mg149      O1029   2.160   1_455  S
Mg149       O151   2.306       .  S
Mg149      O1035   2.298   1_455  S
Mg149      O1051   2.268   1_455  S
C150        O188   1.272       .  A
C150        O156   1.278       .  A
C150        C222   1.490       .  S
O151        C158   1.274       .  A
H152        C609   1.081   1_545  S
C153       H1066   1.081       .  S
C153       O1055   1.237       .  S
C153        O168   1.271       .  A
O154        C177   1.271       .  A
O154       Mg587   2.305       .  S
O155       Mg169   2.156       .  S
O156       Mg186   2.332       .  S
C157        O170   1.274       .  A
C157        O162   1.275       .  A
C157        C353   1.496       .  S
C158        O185   1.274       .  A
C158        C193   1.490       .  S
Mg159       O166   2.155       .  S
Mg159      O1055   2.156       .  S
Mg159       O160   2.288       .  S
Mg159      O1049   2.296       .  S
Mg159      O1076   2.274       .  S
O161        C165   1.269       .  A
O161      Mg1047   2.295   1_455  S
O162       Mg169   2.288       .  S
O163        C182   1.273       .  A
O163      Mg1037   2.273       .  S
O164        C184   1.275       .  A
O164       Mg180   2.309       .  S
C165        H596   1.081       .  S
C165        O588   1.235       .  S
O166       Mg180   2.158       .  S
O166        C177   1.236       .  S
O167       Mg186   2.146       .  S
O167      Mg1047   2.155   1_455  S
O167       C1041   1.238       .  S
O168       Mg180   2.302       .  S
Mg169       O185   2.280       .  S
O170       Mg630   2.280   1_545  S
H171       C1064   1.082       .  S
O172       Mg180   2.150       .  S
O172       Mg587   2.156       .  S
O172        C619   1.236       .  S
H173        C619   1.081       .  S
H174        C177   1.082       .  S
C175        H617   1.081   1_545  S
C175        O616   1.236   1_545  S
C176       H1059   1.082       .  S
C176       O1029   1.236       .  S
H178       C1041   1.081       .  S
O179       Mg630   2.303   1_545  S
C182        O187   1.280       .  A
C182        C318   1.494       .  S
O183        C184   1.274       .  A
O183       Mg587   2.279       .  S
C184        C209   1.488       .  S
Mg186       O588   2.159       .  S
Mg186       O614   2.280       .  S
Mg186       O623   2.303       .  S
O188      Mg1047   2.264   1_455  S
C189        C190   1.401       .  A
C189        C194   1.410       .  A
C189        H196   1.084       .  S
C190        C191   1.409       .  A
C191        C198   1.506       .  S
C191        C192   1.403       .  A
C192        C193   1.406       .  A
C192        H197   1.084       .  S
C193        C194   1.421       .  A
C194        C195   1.507       .  S
C195        H199   1.111       .  S
C195        H200   1.109       .  S
C195        H201   1.111       .  S
C198        H202   1.110       .  S
C198        H203   1.110       .  S
C198        H204   1.111       .  S
C205        C206   1.400       .  A
C205        C210   1.406       .  A
C205        H212   1.084       .  S
C206        C207   1.409       .  A
C207        C214   1.506       .  S
C207        C208   1.405       .  A
C208        C209   1.407       .  A
C208        H213   1.084       .  S
C209        C210   1.419       .  A
C210        C211   1.508       .  S
C211        H215   1.111       .  S
C211        H216   1.109       .  S
C211        H217   1.110       .  S
C214        H218   1.109       .  S
C214        H219   1.110       .  S
C214        H220   1.111       .  S
C221        C222   1.408       .  A
C221        C226   1.405       .  A
C221        H228   1.084       .  S
C222        C223   1.418       .  A
C223        C230   1.507       .  S
C223        C224   1.408       .  A
C224        C225   1.403       .  A
C224        H229   1.084       .  S
C225        C226   1.409       .  A
C226        C227   1.506       .  S
C227        H231   1.111       .  S
C227        H232   1.109       .  S
C227        H233   1.110       .  S
C230        H234   1.109       .  S
C230        H235   1.111       .  S
C230        H236   1.111       .  S
C237        C238   1.401       .  A
C237        C242   1.405       .  A
C237        H244   1.083   1_556  S
C238        C239   1.410       .  A
C239        C246   1.505       .  S
C239        C240   1.410       .  A
C240        C241   1.412       .  A
C240        H245   1.083       .  S
C241        C242   1.423       .  A
C242        C243   1.508   1_556  S
C243        H247   1.111       .  S
C243        H248   1.110       .  S
C243        H249   1.110       .  S
C246        H250   1.108       .  S
C246        H251   1.110       .  S
C246        H252   1.111       .  S
C253        C254   1.402       .  A
C253        C258   1.404   1_556  A
C253        H260   1.084   1_556  S
C254        C255   1.413       .  A
C255        C262   1.506       .  S
C255        C256   1.409       .  A
C256        C257   1.410       .  A
C256        H261   1.084       .  S
C257        C258   1.420   1_556  A
C258        C259   1.506       .  S
C259        H263   1.111       .  S
C259        H264   1.108       .  S
C259        H265   1.111       .  S
C262        H266   1.108       .  S
C262        H267   1.110       .  S
C262        H268   1.111       .  S
C269        C270   1.411       .  A
C269        C274   1.404       .  A
C269        H276   1.083   1_556  S
C270        C271   1.421       .  A
C271        C278   1.508       .  S
C271        C272   1.407       .  A
C272        C273   1.402       .  A
C272        H277   1.083       .  S
C273        C274   1.410       .  A
C274        C275   1.507   1_556  S
C275        H279   1.111       .  S
C275        H280   1.107       .  S
C275        H281   1.110   1_554  S
C278        H282   1.109       .  S
C278        H283   1.111       .  S
C278        H284   1.111       .  S
C285        C286   1.407       .  A
C285        C290   1.403       .  A
C285        H292   1.079       .  S
C286        C287   1.422       .  A
C287        C294   1.512       .  S
C287        C288   1.401       .  A
C288        C289   1.407       .  A
C288        H293   1.080       .  S
C289        C290   1.422       .  A
C290        C291   1.511       .  S
C291        H295   1.111       .  S
C291        H296   1.110       .  S
C291        H297   1.104       .  S
C294        H298   1.110       .  S
C294        H299   1.103       .  S
C294        H300   1.111       .  S
C301        C302   1.408       .  A
C301        C306   1.402       .  A
C301        H308   1.080       .  S
C302        C303   1.422       .  A
C303        C310   1.512       .  S
C303        C304   1.400       .  A
C304        C305   1.406       .  A
C304        H309   1.081       .  S
C305        C306   1.421       .  A
C306        C307   1.511       .  S
C307        H311   1.111       .  S
C307        H312   1.104       .  S
C307        H313   1.110       .  S
C310        H314   1.103       .  S
C310        H315   1.110       .  S
C310        H316   1.111       .  S
C317        C318   1.406       .  A
C317        C322   1.405       .  A
C317        H324   1.084       .  S
C318        C319   1.423       .  A
C319        C326   1.505       .  S
C319        C320   1.407       .  A
C320        C321   1.398       .  A
C320        H325   1.084       .  S
C321        C322   1.409       .  A
C322        C323   1.504       .  S
C323        H327   1.111       .  S
C323        H328   1.111       .  S
C323        H329   1.108       .  S
C326        H330   1.109       .  S
C326        H331   1.110       .  S
C326        H332   1.111       .  S
C333        C334   1.412       .  A
C333        C338   1.401       .  A
C333        H340   1.083       .  S
C334        C335   1.423       .  A
C335        C342   1.508       .  S
C335        C336   1.408       .  A
C336        C337   1.401       .  A
C336        H341   1.084       .  S
C337        C338   1.405       .  A
C338        C339   1.506       .  S
C339        H343   1.111       .  S
C339        H344   1.108       .  S
C339        H345   1.110       .  S
C342        H346   1.110       .  S
C342        H347   1.110       .  S
C342        H348   1.111       .  S
C349        C350   1.399       .  A
C349        C354   1.406       .  A
C349        H356   1.084       .  S
C350        C351   1.406       .  A
C351        C358   1.507       .  S
C351        C352   1.401       .  A
C352        C353   1.412       .  A
C352        H357   1.084       .  S
C353        C354   1.422       .  A
C354        C355   1.508       .  S
C355        H359   1.111       .  S
C355        H360   1.110       .  S
C355        H361   1.110       .  S
C358        H362   1.109       .  S
C358        H363   1.110       .  S
C358        H364   1.111       .  S
C365        C366   1.413       .  A
C365        C370   1.403       .  A
C365        H372   1.083       .  S
C366        C367   1.423       .  A
C367        C374   1.506       .  S
C367        C368   1.406       .  A
C368        C369   1.399       .  A
C368        H373   1.084       .  S
C369        C370   1.404       .  A
C370        C371   1.505       .  S
C371        H375   1.111       .  S
C371        H376   1.111       .  S
C371        H377   1.109   1_554  S
C374        H378   1.110       .  S
C374        H379   1.106       .  S
C374        H380   1.111       .  S
C381        C382   1.407       .  A
C381        C386   1.406       .  A
C381        H388   1.084       .  S
C382        C383   1.417       .  A
C383        C390   1.508       .  S
C383        C384   1.404       .  A
C384        C385   1.401       .  A
C384        H389   1.083       .  S
C385        C386   1.410       .  A
C386        C387   1.506       .  S
C387        H391   1.111   1_554  S
C387        H392   1.108   1_554  S
C387        H393   1.110       .  S
C390        H394   1.109       .  S
C390        H395   1.110       .  S
C390        H396   1.111       .  S
C397        C398   1.400       .  A
C397        C402   1.405       .  A
C397        H404   1.084       .  S
C398        C399   1.410       .  A
C399        C406   1.507   1_554  S
C399        C400   1.403       .  A
C400        C401   1.409       .  A
C400        H405   1.084   1_554  S
C401        C402   1.422       .  A
C402        C403   1.508       .  S
C403        H407   1.111       .  S
C403        H408   1.110       .  S
C403        H409   1.108       .  S
C406        H410   1.111   1_556  S
C406        H411   1.107       .  S
C406        H412   1.111       .  S
C413        C414   1.407       .  A
C413        C418   1.403       .  A
C413        H420   1.082       .  S
C414        C415   1.422       .  A
C415        C422   1.510       .  S
C415        C416   1.402       .  A
C416        C417   1.407       .  A
C416        H421   1.082       .  S
C417        C418   1.421       .  A
C418        C419   1.508       .  S
C419        H423   1.111       .  S
C419        H424   1.109       .  S
C419        H425   1.105       .  S
C422        H426   1.110       .  S
C422        H427   1.104       .  S
C422        H428   1.111       .  S
C429        C430   1.407       .  A
C429        C434   1.403       .  A
C429        H436   1.083       .  S
C430        C431   1.422       .  A
C431        C438   1.510       .  S
C431        C432   1.402       .  A
C432        C433   1.407       .  A
C432        H437   1.083       .  S
C433        C434   1.422       .  A
C434        C435   1.509       .  S
C435        H439   1.111       .  S
C435        H440   1.110       .  S
C435        H441   1.105       .  S
C438        H442   1.110       .  S
C438        H443   1.105       .  S
C438        H444   1.111       .  S
C445        C447   1.540       .  S
C445        C449   1.548       .  S
C445        C448   1.528       .  S
C445        C874   1.530       .  S
C446        C450   1.549   1_556  S
C446        C452   1.541   1_556  S
C446        C451   1.529   1_556  S
C446        C858   1.534       .  S
C447        C455   1.377       .  A
C447        C450   1.399       .  A
C448        C459   1.376       .  A
C448        C451   1.385       .  A
C449        C463   1.384       .  A
C449        C452   1.398       .  A
C450        C453   1.381       .  A
C451        C457   1.376   1_554  A
C452        C460   1.376       .  A
C453        N454   1.357       .  A
C453        H466   1.082   1_554  S
N454        C455   1.353       .  A
N454        C813   1.434       .  S
C455        H456   1.082       .  S
C457        N458   1.358   1_556  A
C457        H467   1.083       .  S
N458        C459   1.357       .  A
N458        C842   1.436       .  S
C459        H465   1.083       .  S
C460        N461   1.355       .  A
C460        H462   1.081   1_554  S
N461        C463   1.357       .  A
N461        C829   1.436       .  S
C463        H464   1.081       .  S
C468        C470   1.546       .  S
C468        C472   1.528       .  S
C468        C471   1.543       .  S
C468        C877   1.533       .  S
C469        C473   1.544       .  S
C469        C475   1.531       .  S
C469        C474   1.549       .  S
C469        C861   1.533       .  S
C470        C478   1.380       .  A
C470        C473   1.398       .  A
C471        C482   1.379       .  A
C471        C474   1.398       .  A
C472        C486   1.374       .  A
C472        C475   1.385       .  A
C473        C476   1.380       .  A
C474        C480   1.383       .  A
C475        C483   1.378       .  A
C476        N477   1.355       .  A
C476        H489   1.081       .  S
N477        C478   1.355       .  A
N477        C765   1.434       .  S
C478        H479   1.082       .  S
C480        N481   1.356       .  A
C480        H490   1.082       .  S
N481        C482   1.357       .  A
N481        C781   1.438       .  S
C482        H488   1.081       .  S
C483        N484   1.358       .  A
C483        H485   1.083       .  S
N484        C486   1.358       .  A
N484        C794   1.436       .  S
C486        H487   1.082       .  S
C491        C493   1.547   1_554  S
C491        C495   1.542   1_554  S
C491        C494   1.529   1_554  S
C491        C746   1.532       .  S
C492        C496   1.554       .  S
C492        C498   1.547       .  S
C492        C497   1.534       .  S
C492        C733   1.532       .  S
C493        C501   1.384       .  A
C493        C496   1.405       .  A
C494        C505   1.377       .  A
C494        C497   1.382       .  A
C495        C509   1.378       .  A
C495        C498   1.394       .  A
C496        C499   1.389       .  A
C497        C503   1.383       .  A
C498        C506   1.384       .  A
C499        N500   1.353       .  A
C499        H512   1.082       .  S
N500        C501   1.352       .  A
N500        C717   1.436       .  S
C501        H502   1.081   1_556  S
C503        N504   1.359       .  A
C503        H513   1.082       .  S
N504        C505   1.356       .  A
N504        C698   1.438       .  S
C505        H511   1.083   1_556  S
C506        N507   1.360       .  A
C506        H508   1.080       .  S
N507        C509   1.358       .  A
N507        C682   1.442       .  S
C509        H510   1.082   1_556  S
C514        C516   1.548       .  S
C514        C518   1.533       .  S
C514        C517   1.552       .  S
C514        C749   1.532       .  S
C515        C519   1.542       .  S
C515        C521   1.531       .  S
C515        C520   1.551       .  S
C515        C730   1.533       .  S
C516        C524   1.385       .  A
C516        C519   1.395       .  A
C517        C528   1.387       .  A
C517        C520   1.402       .  A
C518        C532   1.381       .  A
C518        C521   1.384       .  A
C519        C522   1.379       .  A
C520        C526   1.385       .  A
C521        C529   1.378       .  A
C522        N523   1.357       .  A
C522        H535   1.082       .  S
N523        C524   1.359       .  A
N523        C669   1.441       .  S
C524        H525   1.081       .  S
C526        N527   1.355       .  A
C526        H536   1.081       .  S
N527        C528   1.354       .  A
N527        C634   1.439       .  S
C528        H534   1.081       .  S
C529        N530   1.357       .  A
C529        H531   1.082       .  S
N530        C532   1.358       .  A
N530        C650   1.438       .  S
C532        H533   1.083       .  S
O537       Mg539   2.145       .  S
C538        H577   1.081       .  S
C538        O551   1.236       .  S
C538        O575   1.269       .  A
Mg539      O1456   2.157   1_454  S
Mg539       O583   2.324   1_554  S
Mg539      O1467   2.273   1_455  S
Mg539      O1438   2.306   1_455  S
O540      Mg1470   2.155   1_454  S
O540       Mg565   2.143       .  S
O540       C1449   1.236       .  S
O541        C572   1.269       .  A
O541       Mg565   2.297       .  S
C542        O544   1.273       .  A
C542        O556   1.277       .  A
C542        C701   1.505       .  S
O543        C571   1.270   1_455  A
O544       Mg576   2.269       .  S
Mg545       O551   2.146       .  S
Mg545       O547   2.311   1_556  S
C546        O584   1.274       .  A
C546        O552   1.273       .  A
C546        C810   1.496       .  S
O547        C554   1.278       .  A
H548       C1449   1.081       .  S
C549        O564   1.270   1_545  A
O550        C573   1.271       .  A
O550      Mg1427   2.303       .  S
O551       Mg565   2.155   1_556  S
O552       Mg582   2.280   1_554  S
C553        O566   1.274       .  A
C553        O558   1.276       .  A
C553        C685   1.501       .  S
C554        O581   1.272       .  A
C554        C845   1.494       .  S
Mg555       O562   2.149       .  S
Mg555       O556   2.328   1_554  S
O557        C561   1.270       .  A
O558       Mg565   2.316   1_556  S
O559        C578   1.272       .  A
O560        C580   1.273       .  A
O560       Mg576   2.294   1_554  S
C561       H1436   1.081       .  S
C561       O1428   1.237       .  S
O562       Mg576   2.155   1_554  S
O562        C573   1.236       .  S
O563       Mg582   2.155       .  S
O564       Mg576   2.299       .  S
Mg565       O581   2.262       .  S
O566      Mg1470   2.281   1_455  S
O568      Mg1427   2.158   1_556  S
O568       Mg576   2.142       .  S
O568       C1459   1.236       .  S
H569       C1459   1.081       .  S
H570        C573   1.082       .  S
C571       H1457   1.081       .  S
C571       O1456   1.236       .  S
O575      Mg1470   2.296   1_455  S
C578        O583   1.278       .  A
C578        C714   1.499       .  S
O579        C580   1.275       .  A
O579      Mg1427   2.283       .  S
C580        C826   1.497       .  S
Mg582      O1428   2.154   1_556  S
Mg582      O1454   2.283       .  S
Mg582      O1463   2.293       .  S
O585       Mg587   2.145       .  S
O585      Mg1481   2.159       .  S
O585       C1508   1.237       .  S
C586        H625   1.082       .  S
C586        O599   1.236       .  S
C586        O623   1.271       .  A
Mg587       O631   2.323       .  S
O588       Mg613   2.145       .  S
O589        C620   1.270   1_455  A
O589       Mg613   2.299       .  S
C590        O592   1.273       .  A
C590        O604   1.274       .  A
C590        C778   1.499       .  S
O591        C619   1.270       .  A
O591      Mg1481   2.299       .  S
O592       Mg624   2.292       .  S
Mg593      O1473   2.159   1_455  S
Mg593       O599   2.149       .  S
Mg593      O1479   2.300   1_455  S
Mg593      O1495   2.272   1_455  S
Mg593       O595   2.313       .  S
C594        O632   1.273       .  A
C594        O600   1.279       .  A
C594        C666   1.493       .  S
O595        C602   1.275       .  A
C597       H1510   1.081       .  S
C597       O1499   1.238       .  S
C597        O612   1.271       .  A
O598        C621   1.271       .  A
O599       Mg613   2.155       .  S
O600       Mg630   2.337       .  S
C601        O614   1.273       .  A
C601        O606   1.275       .  A
C601        C797   1.494       .  S
C602        O629   1.273       .  A
C602        C637   1.489       .  S
Mg603       O610   2.154       .  S
Mg603      O1499   2.157       .  S
Mg603       O604   2.286       .  S
Mg603      O1493   2.295       .  S
Mg603      O1520   2.272       .  S
O605        C609   1.270       .  A
O605      Mg1491   2.299   1_455  S
O606       Mg613   2.288       .  S
O607        C626   1.272       .  A
O607      Mg1481   2.266       .  S
O608        C628   1.276       .  A
O608       Mg624   2.313       .  S
O610       Mg624   2.158       .  S
O610        C621   1.237       .  S
O611      Mg1491   2.154   1_455  S
O611       Mg630   2.147       .  S
O611       C1485   1.237       .  S
O612       Mg624   2.302       .  S
Mg613       O629   2.275       .  S
H615       C1508   1.082       .  S
O616       Mg624   2.155       .  S
H618        C621   1.082       .  S
C620       H1503   1.082       .  S
C620       O1473   1.237       .  S
H622       C1485   1.081       .  S
C626        O631   1.279       .  A
C626        C762   1.493       .  S
O627        C628   1.275       .  A
C628        C653   1.491       .  S
O632      Mg1491   2.270   1_455  S
C633        C634   1.401       .  A
C633        C638   1.409       .  A
C633        H640   1.084       .  S
C634        C635   1.410       .  A
C635        C642   1.506       .  S
C635        C636   1.404       .  A
C636        C637   1.405       .  A
C636        H641   1.084       .  S
C637        C638   1.418       .  A
C638        C639   1.504       .  S
C639        H643   1.111       .  S
C639        H644   1.104       .  S
C639        H645   1.110       .  S
C642        H646   1.109       .  S
C642        H647   1.111       .  S
C642        H648   1.111       .  S
C649        C650   1.400       .  A
C649        C654   1.408       .  A
C649        H656   1.084       .  S
C650        C651   1.409       .  A
C651        C658   1.505       .  S
C651        C652   1.406       .  A
C652        C653   1.408       .  A
C652        H657   1.084       .  S
C653        C654   1.421       .  A
C654        C655   1.508       .  S
C655        H659   1.111       .  S
C655        H660   1.110       .  S
C655        H661   1.110       .  S
C658        H662   1.110       .  S
C658        H663   1.110       .  S
C658        H664   1.111       .  S
C665        C666   1.409       .  A
C665        C670   1.407       .  A
C665        H672   1.084       .  S
C666        C667   1.418       .  A
C667        C674   1.507       .  S
C667        C668   1.409       .  A
C668        C669   1.403       .  A
C668        H673   1.084       .  S
C669        C670   1.409       .  A
C670        C671   1.506       .  S
C671        H675   1.111       .  S
C671        H676   1.109       .  S
C671        H677   1.110       .  S
C674        H678   1.109       .  S
C674        H679   1.111       .  S
C674        H680   1.111       .  S
C681        C682   1.400       .  A
C681        C686   1.404       .  A
C681        H688   1.083   1_556  S
C682        C683   1.410       .  A
C683        C690   1.505       .  S
C683        C684   1.410       .  A
C684        C685   1.412       .  A
C684        H689   1.083       .  S
C685        C686   1.424       .  A
C686        C687   1.508   1_556  S
C687        H691   1.111       .  S
C687        H692   1.110       .  S
C687        H693   1.110       .  S
C690        H694   1.109       .  S
C690        H695   1.110       .  S
C690        H696   1.111       .  S
C697        C698   1.397       .  A
C697        C702   1.406       .  A
C697        H704   1.084       .  S
C698        C699   1.406       .  A
C699        C706   1.505       .  S
C699        C700   1.407       .  A
C700        C701   1.414       .  A
C700        H705   1.084       .  S
C701        C702   1.425       .  A
C702        C703   1.506       .  S
C703        H707   1.111   1_556  S
C703        H708   1.110       .  S
C703        H709   1.110   1_556  S
C706        H710   1.110       .  S
C706        H711   1.111       .  S
C706        H712   1.111       .  S
C713        C714   1.413       .  A
C713        C718   1.409       .  A
C713        H720   1.083       .  S
C714        C715   1.425       .  A
C715        C722   1.510       .  S
C715        C716   1.405       .  A
C716        C717   1.396       .  A
C716        H721   1.083       .  S
C717        C718   1.406       .  A
C718        C719   1.504       .  S
C719        H723   1.111       .  S
C719        H724   1.110       .  S
C719        H725   1.110       .  S
C722        H726   1.110       .  S
C722        H727   1.110       .  S
C722        H728   1.111       .  S
C729        C730   1.407       .  A
C729        C734   1.403       .  A
C729        H736   1.079       .  S
C730        C731   1.422       .  A
C731        C738   1.512       .  S
C731        C732   1.400       .  A
C732        C733   1.407       .  A
C732        H737   1.080       .  S
C733        C734   1.422       .  A
C734        C735   1.511       .  S
C735        H739   1.111       .  S
C735        H740   1.110       .  S
C735        H741   1.104       .  S
C738        H742   1.110       .  S
C738        H743   1.103       .  S
C738        H744   1.111       .  S
C745        C746   1.408       .  A
C745        C750   1.403       .  A
C745        H752   1.080       .  S
C746        C747   1.422       .  A
C747        C754   1.512       .  S
C747        C748   1.400       .  A
C748        C749   1.406       .  A
C748        H753   1.081       .  S
C749        C750   1.421       .  A
C750        C751   1.510       .  S
C751        H755   1.111       .  S
C751        H756   1.104       .  S
C751        H757   1.110       .  S
C754        H758   1.103       .  S
C754        H759   1.110       .  S
C754        H760   1.111       .  S
C761        C762   1.407       .  A
C761        C766   1.404       .  A
C761        H768   1.084       .  S
C762        C763   1.423       .  A
C763        C770   1.505       .  S
C763        C764   1.405       .  A
C764        C765   1.396       .  A
C764        H769   1.084       .  S
C765        C766   1.408       .  A
C766        C767   1.504       .  S
C767        H771   1.111       .  S
C767        H772   1.111       .  S
C767        H773   1.108       .  S
C770        H774   1.108       .  S
C770        H775   1.110       .  S
C770        H776   1.111       .  S
C777        C778   1.412       .  A
C777        C782   1.402       .  A
C777        H784   1.083       .  S
C778        C779   1.422       .  A
C779        C786   1.507       .  S
C779        C780   1.409       .  A
C780        C781   1.403       .  A
C780        H785   1.084       .  S
C781        C782   1.406       .  A
C782        C783   1.507       .  S
C783        H787   1.111       .  S
C783        H788   1.108       .  S
C783        H789   1.110       .  S
C786        H790   1.109       .  S
C786        H791   1.111       .  S
C786        H792   1.111       .  S
C793        C794   1.401       .  A
C793        C798   1.407       .  A
C793        H800   1.084       .  S
C794        C795   1.408       .  A
C795        C802   1.508       .  S
C795        C796   1.401       .  A
C796        C797   1.411       .  A
C796        H801   1.084       .  S
C797        C798   1.421       .  A
C798        C799   1.508       .  S
C799        H803   1.111       .  S
C799        H804   1.110       .  S
C799        H805   1.111       .  S
C802        H806   1.108       .  S
C802        H807   1.110       .  S
C802        H808   1.111       .  S
C809        C810   1.413       .  A
C809        C814   1.402       .  A
C809        H816   1.083       .  S
C810        C811   1.421       .  A
C811        C818   1.506       .  S
C811        C812   1.406       .  A
C812        C813   1.400       .  A
C812        H817   1.084       .  S
C813        C814   1.404       .  A
C814        C815   1.506       .  S
C815        H819   1.111       .  S
C815        H820   1.111       .  S
C815        H821   1.108   1_554  S
C818        H822   1.110       .  S
C818        H823   1.106       .  S
C818        H824   1.111       .  S
C825        C826   1.411       .  A
C825        C830   1.408       .  A
C825        H832   1.083       .  S
C826        C827   1.426       .  A
C827        C834   1.511   1_554  S
C827        C828   1.402       .  A
C828        C829   1.397       .  A
C828        H833   1.084       .  S
C829        C830   1.408       .  A
C830        C831   1.505       .  S
C831        H835   1.111       .  S
C831        H836   1.111       .  S
C831        H837   1.109       .  S
C834        H838   1.110       .  S
C834        H839   1.110   1_556  S
C834        H840   1.111       .  S
C841        C842   1.398       .  A
C841        C846   1.404       .  A
C841        H848   1.084       .  S
C842        C843   1.410       .  A
C843        C850   1.507   1_554  S
C843        C844   1.403       .  A
C844        C845   1.410       .  A
C844        H849   1.084   1_554  S
C845        C846   1.423       .  A
C846        C847   1.508       .  S
C847        H851   1.111       .  S
C847        H852   1.110       .  S
C847        H853   1.107       .  S
C850        H854   1.111   1_556  S
C850        H855   1.108       .  S
C850        H856   1.111       .  S
C857        C858   1.407       .  A
C857        C862   1.404       .  A
C857        H864   1.082       .  S
C858        C859   1.423       .  A
C859        C866   1.510       .  S
C859        C860   1.402       .  A
C860        C861   1.406       .  A
C860        H865   1.082       .  S
C861        C862   1.421       .  A
C862        C863   1.509       .  S
C863        H867   1.111       .  S
C863        H868   1.109       .  S
C863        H869   1.105       .  S
C866        H870   1.110       .  S
C866        H871   1.104       .  S
C866        H872   1.111       .  S
C873        C874   1.406       .  A
C873        C878   1.403       .  A
C873        H880   1.083       .  S
C874        C875   1.422       .  A
C875        C882   1.510       .  S
C875        C876   1.402       .  A
C876        C877   1.407       .  A
C876        H881   1.083       .  S
C877        C878   1.422       .  A
C878        C879   1.509       .  S
C879        H883   1.111       .  S
C879        H884   1.110       .  S
C879        H885   1.105       .  S
C882        H886   1.110       .  S
C882        H887   1.105       .  S
C882        H888   1.111       .  S
C889        C891   1.540       .  S
C889        C893   1.546       .  S
C889        C892   1.527       .  S
C889       C1318   1.530       .  S
C890        C894   1.549   1_556  S
C890        C896   1.544   1_556  S
C890        C895   1.532   1_556  S
C890       C1302   1.534       .  S
C891        C899   1.378       .  A
C891        C894   1.399       .  A
C892        C903   1.375       .  A
C892        C895   1.385       .  A
C893        C907   1.380       .  A
C893        C896   1.398       .  A
C894        C897   1.381       .  A
C895        C901   1.377   1_554  A
C896        C904   1.380   1_554  A
C897        N898   1.356       .  A
C897        H910   1.081   1_554  S
N898        C899   1.354       .  A
N898       C1257   1.434       .  S
C899        H900   1.082       .  S
C901        N902   1.360   1_556  A
C901        H911   1.082       .  S
N902        C903   1.356       .  A
N902       C1286   1.437       .  S
C903        H909   1.083       .  S
C904        N905   1.358   1_556  A
C904        H906   1.080       .  S
N905        C907   1.356       .  A
N905       C1273   1.438       .  S
C907        H908   1.082       .  S
C912        C914   1.542       .  S
C912        C916   1.527       .  S
C912        C915   1.540       .  S
C912       C1321   1.532       .  S
C913        C917   1.547       .  S
C913        C919   1.531       .  S
C913        C918   1.549       .  S
C913       C1305   1.534       .  S
C914        C922   1.376       .  A
C914        C917   1.398       .  A
C915        C926   1.377       .  A
C915        C918   1.398       .  A
C916        C930   1.374       .  A
C916        C919   1.385       .  A
C917        C920   1.383       .  A
C918        C924   1.381       .  A
C919        C927   1.378       .  A
C920        N921   1.358       .  A
C920        H933   1.081       .  S
N921        C922   1.355       .  A
N921       C1209   1.439       .  S
C922        H923   1.081       .  S
C924        N925   1.355       .  A
C924        H934   1.082       .  S
N925        C926   1.356       .  A
N925       C1225   1.436       .  S
C926        H932   1.081       .  S
C927        N928   1.358       .  A
C927        H929   1.083       .  S
N928        C930   1.357       .  A
N928       C1238   1.436       .  S
C930        H931   1.082       .  S
C935        C937   1.546   1_554  S
C935        C939   1.541   1_554  S
C935        C938   1.526   1_554  S
C935       C1190   1.532       .  S
C936        C940   1.553       .  S
C936        C942   1.547       .  S
C936        C941   1.535       .  S
C936       C1177   1.532       .  S
C937        C945   1.382       .  A
C937        C940   1.406       .  A
C938        C949   1.375       .  A
C938        C941   1.383       .  A
C939        C953   1.377       .  A
C939        C942   1.394       .  A
C940        C943   1.388       .  A
C941        C947   1.384       .  A
C942        C950   1.384       .  A
C943        N944   1.352       .  A
C943        H956   1.082       .  S
N944        C945   1.350       .  A
N944       C1161   1.433       .  S
C945        H946   1.082   1_556  S
C947        N948   1.360       .  A
C947        H957   1.082       .  S
N948        C949   1.355       .  A
N948       C1142   1.438       .  S
C949        H955   1.083   1_556  S
C950        N951   1.360       .  A
C950        H952   1.081       .  S
N951        C953   1.358       .  A
N951       C1126   1.441       .  S
C953        H954   1.082   1_556  S
C958        C960   1.548       .  S
C958        C962   1.534       .  S
C958        C961   1.552       .  S
C958       C1193   1.531       .  S
C959        C963   1.542       .  S
C959        C965   1.530       .  S
C959        C964   1.549       .  S
C959       C1174   1.533       .  S
C960        C968   1.385       .  A
C960        C963   1.394       .  A
C961        C972   1.387       .  A
C961        C964   1.402       .  A
C962        C976   1.382       .  A
C962        C965   1.383       .  A
C963        C966   1.378       .  A
C964        C970   1.384       .  A
C965        C973   1.378       .  A
C966        N967   1.357       .  A
C966        H979   1.081       .  S
N967        C968   1.359       .  A
N967       C1113   1.441       .  S
C968        H969   1.082       .  S
C970        N971   1.354       .  A
C970        H980   1.082       .  S
N971        C972   1.354       .  A
N971       C1078   1.438       .  S
C972        H978   1.081       .  S
C973        N974   1.357       .  A
C973        H975   1.082       .  S
N974        C976   1.359       .  A
N974       C1094   1.439       .  S
C976        H977   1.083       .  S
O981       Mg983   2.147       .  S
O981      Mg1433   2.154   1_554  S
O981       C1460   1.236       .  S
C982       H1021   1.081       .  S
C982        O995   1.236       .  S
C982       O1019   1.270       .  A
Mg983      O1027   2.317   1_554  S
O984      Mg1009   2.140       .  S
O985       C1016   1.270   1_545  A
O985      Mg1009   2.302       .  S
C986        O988   1.272       .  A
C986       O1000   1.277       .  A
C986       C1145   1.502       .  S
O987       C1015   1.270       .  A
O987      Mg1433   2.297       .  S
O988      Mg1020   2.263       .  S
Mg989      O1425   2.156   1_546  S
Mg989       O995   2.144       .  S
Mg989      O1431   2.295   1_545  S
Mg989      O1447   2.260   1_545  S
Mg989       O991   2.310   1_556  S
C990       O1028   1.274       .  A
C990        O996   1.274       .  A
C990       C1254   1.497       .  S
O991        C998   1.277       .  A
C993       H1462   1.081       .  S
C993       O1451   1.236       .  S
C993       O1008   1.270       .  A
O994       C1017   1.271       .  A
O995      Mg1009   2.152   1_556  S
O996      Mg1026   2.287   1_554  S
C997       O1010   1.274       .  A
C997       O1002   1.276       .  A
C997       C1129   1.501       .  S
C998       O1025   1.272       .  A
C998       C1289   1.494       .  S
Mg999      O1006   2.149       .  S
Mg999      O1451   2.159   1_554  S
Mg999      O1000   2.328   1_554  S
Mg999      O1445   2.304       .  S
Mg999      O1472   2.277       .  S
O1001      C1005   1.270   1_655  A
O1001     Mg1443   2.302   1_545  S
O1002     Mg1009   2.318   1_556  S
O1003      C1022   1.271       .  A
O1003     Mg1433   2.255       .  S
O1004      C1024   1.274       .  A
O1004     Mg1020   2.304   1_554  S
O1006     Mg1020   2.158   1_554  S
O1006      C1017   1.237       .  S
O1007     Mg1443   2.160   1_546  S
O1007     Mg1026   2.155       .  S
O1007      C1437   1.236       .  S
O1008     Mg1020   2.300       .  S
Mg1009     O1025   2.266       .  S
H1011      C1460   1.082       .  S
O1012     Mg1020   2.141       .  S
H1014      C1017   1.082       .  S
C1016      H1455   1.082       .  S
C1016      O1425   1.236       .  S
H1018      C1437   1.081       .  S
C1022      O1027   1.277       .  A
C1022      C1158   1.493       .  S
O1023      C1024   1.271       .  A
C1024      C1270   1.482       .  S
O1028     Mg1443   2.285   1_545  S
O1029     Mg1031   2.140       .  S
C1030      H1069   1.081       .  S
C1030      O1043   1.237       .  S
C1030      O1067   1.271       .  A
Mg1031     O1504   2.155   1_545  S
Mg1031     O1075   2.309       .  S
Mg1031     O1515   2.274   1_545  S
Mg1031     O1486   2.301   1_545  S
O1032     Mg1518   2.159   1_545  S
O1032     Mg1057   2.145       .  S
O1032      C1497   1.235   1_545  S
O1033      C1064   1.270       .  A
O1033     Mg1057   2.298       .  S
C1034      O1036   1.273       .  A
C1034      O1048   1.273       .  A
C1034      C1222   1.496       .  S
O1035      C1063   1.269       .  A
O1036     Mg1068   2.286       .  S
Mg1037     O1043   2.151       .  S
Mg1037     O1039   2.312       .  S
C1038      O1076   1.273       .  A
C1038      O1044   1.279       .  A
C1038      C1110   1.492       .  S
O1039      C1046   1.275       .  A
H1040      C1497   1.081   1_545  S
C1041      O1056   1.271   1_455  A
O1042      C1065   1.271       .  A
O1042     Mg1475   2.304       .  S
O1043     Mg1057   2.157       .  S
O1044     Mg1074   2.333       .  S
C1045      O1058   1.273       .  A
C1045      O1050   1.274       .  A
C1045      C1241   1.495       .  S
C1046      O1073   1.272       .  A
C1046      C1081   1.487       .  S
Mg1047     O1054   2.151       .  S
Mg1047     O1048   2.284       .  S
O1049      C1053   1.269       .  A
O1050     Mg1057   2.285       .  S
O1051      C1070   1.271       .  A
O1052      C1072   1.276       .  A
O1052     Mg1068   2.318       .  S
C1053      H1484   1.081       .  S
C1053      O1476   1.235       .  S
O1054     Mg1068   2.156       .  S
O1054      C1065   1.236       .  S
O1055     Mg1074   2.148       .  S
O1056     Mg1068   2.303       .  S
Mg1057     O1073   2.273       .  S
O1058     Mg1518   2.281   1_545  S
O1060     Mg1475   2.156       .  S
O1060     Mg1068   2.152       .  S
O1060      C1507   1.236       .  S
H1061      C1507   1.081       .  S
H1062      C1065   1.082       .  S
C1063      H1505   1.081   1_545  S
C1063      O1504   1.236   1_545  S
O1067     Mg1518   2.304   1_545  S
C1070      O1075   1.278       .  A
C1070      C1206   1.494       .  S
O1071      C1072   1.275       .  A
O1071     Mg1475   2.281       .  S
C1072      C1097   1.489       .  S
Mg1074     O1476   2.160       .  S
Mg1074     O1502   2.286       .  S
Mg1074     O1511   2.301       .  S
C1077      C1078   1.401       .  A
C1077      C1082   1.409       .  A
C1077      H1084   1.084       .  S
C1078      C1079   1.411       .  A
C1079      C1086   1.506       .  S
C1079      C1080   1.404       .  A
C1080      C1081   1.405       .  A
C1080      H1085   1.084       .  S
C1081      C1082   1.418       .  A
C1082      C1083   1.504       .  S
C1083      H1087   1.111       .  S
C1083      H1088   1.104       .  S
C1083      H1089   1.110       .  S
C1086      H1090   1.109       .  S
C1086      H1091   1.111       .  S
C1086      H1092   1.111       .  S
C1093      C1094   1.401       .  A
C1093      C1098   1.408       .  A
C1093      H1100   1.084       .  S
C1094      C1095   1.410       .  A
C1095      C1102   1.506       .  S
C1095      C1096   1.406       .  A
C1096      C1097   1.407       .  A
C1096      H1101   1.084       .  S
C1097      C1098   1.419       .  A
C1098      C1099   1.507       .  S
C1099      H1103   1.111       .  S
C1099      H1104   1.109       .  S
C1099      H1105   1.110       .  S
C1102      H1106   1.109       .  S
C1102      H1107   1.110       .  S
C1102      H1108   1.111       .  S
C1109      C1110   1.409       .  A
C1109      C1114   1.407       .  A
C1109      H1116   1.084       .  S
C1110      C1111   1.418       .  A
C1111      C1118   1.507       .  S
C1111      C1112   1.409       .  A
C1112      C1113   1.403       .  A
C1112      H1117   1.084       .  S
C1113      C1114   1.410       .  A
C1114      C1115   1.506       .  S
C1115      H1119   1.111       .  S
C1115      H1120   1.109       .  S
C1115      H1121   1.110       .  S
C1118      H1122   1.109       .  S
C1118      H1123   1.111       .  S
C1118      H1124   1.111       .  S
C1125      C1126   1.400       .  A
C1125      C1130   1.404       .  A
C1125      H1132   1.084   1_556  S
C1126      C1127   1.409       .  A
C1127      C1134   1.505       .  S
C1127      C1128   1.410       .  A
C1128      C1129   1.412       .  A
C1128      H1133   1.083       .  S
C1129      C1130   1.423       .  A
C1130      C1131   1.508   1_556  S
C1131      H1135   1.111       .  S
C1131      H1136   1.110   1_554  S
C1131      H1137   1.110       .  S
C1134      H1138   1.109       .  S
C1134      H1139   1.110       .  S
C1134      H1140   1.111       .  S
C1141      C1142   1.399       .  A
C1141      C1146   1.406       .  A
C1141      H1148   1.084       .  S
C1142      C1143   1.407       .  A
C1143      C1150   1.505       .  S
C1143      C1144   1.407       .  A
C1144      C1145   1.413       .  A
C1144      H1149   1.084       .  S
C1145      C1146   1.424       .  A
C1146      C1147   1.506   1_556  S
C1147      H1151   1.111       .  S
C1147      H1152   1.110   1_554  S
C1147      H1153   1.110       .  S
C1150      H1154   1.109       .  S
C1150      H1155   1.111       .  S
C1150      H1156   1.111       .  S
C1157      C1158   1.412       .  A
C1157      C1162   1.407       .  A
C1157      H1164   1.083       .  S
C1158      C1159   1.424       .  A
C1159      C1166   1.510       .  S
C1159      C1160   1.403       .  A
C1160      C1161   1.396       .  A
C1160      H1165   1.083       .  S
C1161      C1162   1.405       .  A
C1162      C1163   1.504       .  S
C1163      H1167   1.111       .  S
C1163      H1168   1.111       .  S
C1163      H1169   1.110       .  S
C1166      H1170   1.111   1_556  S
C1166      H1171   1.110       .  S
C1166      H1172   1.111       .  S
C1173      C1174   1.407       .  A
C1173      C1178   1.403       .  A
C1173      H1180   1.079       .  S
C1174      C1175   1.422       .  A
C1175      C1182   1.512       .  S
C1175      C1176   1.401       .  A
C1176      C1177   1.407       .  A
C1176      H1181   1.080       .  S
C1177      C1178   1.421       .  A
C1178      C1179   1.511       .  S
C1179      H1183   1.111       .  S
C1179      H1184   1.110       .  S
C1179      H1185   1.104       .  S
C1182      H1186   1.110       .  S
C1182      H1187   1.103       .  S
C1182      H1188   1.111       .  S
C1189      C1190   1.408       .  A
C1189      C1194   1.402       .  A
C1189      H1196   1.080       .  S
C1190      C1191   1.422       .  A
C1191      C1198   1.512       .  S
C1191      C1192   1.400       .  A
C1192      C1193   1.406       .  A
C1192      H1197   1.081       .  S
C1193      C1194   1.421       .  A
C1194      C1195   1.511       .  S
C1195      H1199   1.111       .  S
C1195      H1200   1.104       .  S
C1195      H1201   1.110       .  S
C1198      H1202   1.103       .  S
C1198      H1203   1.110       .  S
C1198      H1204   1.111       .  S
C1205      C1206   1.407       .  A
C1205      C1210   1.400       .  A
C1205      H1212   1.084       .  S
C1206      C1207   1.422       .  A
C1207      C1214   1.507       .  S
C1207      C1208   1.409       .  A
C1208      C1209   1.402       .  A
C1208      H1213   1.084       .  S
C1209      C1210   1.412       .  A
C1210      C1211   1.508       .  S
C1211      H1215   1.111       .  S
C1211      H1216   1.108       .  S
C1211      H1217   1.110       .  S
C1214      H1218   1.109       .  S
C1214      H1219   1.110       .  S
C1214      H1220   1.111       .  S
C1221      C1222   1.413       .  A
C1221      C1226   1.402       .  A
C1221      H1228   1.083       .  S
C1222      C1223   1.421       .  A
C1223      C1230   1.507       .  S
C1223      C1224   1.407       .  A
C1224      C1225   1.401       .  A
C1224      H1229   1.084       .  S
C1225      C1226   1.406       .  A
C1226      C1227   1.507       .  S
C1227      H1231   1.111       .  S
C1227      H1232   1.108       .  S
C1227      H1233   1.110       .  S
C1230      H1234   1.109       .  S
C1230      H1235   1.111       .  S
C1230      H1236   1.111       .  S
C1237      C1238   1.400       .  A
C1237      C1242   1.407       .  A
C1237      H1244   1.084       .  S
C1238      C1239   1.408       .  A
C1239      C1246   1.508       .  S
C1239      C1240   1.401       .  A
C1240      C1241   1.411       .  A
C1240      H1245   1.084       .  S
C1241      C1242   1.422       .  A
C1242      C1243   1.507       .  S
C1243      H1247   1.111       .  S
C1243      H1248   1.110       .  S
C1243      H1249   1.110       .  S
C1246      H1250   1.108       .  S
C1246      H1251   1.110       .  S
C1246      H1252   1.111       .  S
C1253      C1254   1.413       .  A
C1253      C1258   1.402       .  A
C1253      H1260   1.083       .  S
C1254      C1255   1.422       .  A
C1255      C1262   1.506       .  S
C1255      C1256   1.406       .  A
C1256      C1257   1.399       .  A
C1256      H1261   1.084       .  S
C1257      C1258   1.404       .  A
C1258      C1259   1.506       .  S
C1259      H1263   1.111   1_554  S
C1259      H1264   1.111       .  S
C1259      H1265   1.109   1_554  S
C1262      H1266   1.110       .  S
C1262      H1267   1.107       .  S
C1262      H1268   1.111       .  S
C1269      C1270   1.406       .  A
C1269      C1274   1.405       .  A
C1269      H1276   1.084   1_554  S
C1270      C1271   1.415       .  A
C1271      C1278   1.508       .  S
C1271      C1272   1.404       .  A
C1272      C1273   1.403       .  A
C1272      H1277   1.083       .  S
C1273      C1274   1.412       .  A
C1274      C1275   1.506   1_554  S
C1275      H1279   1.111       .  S
C1275      H1280   1.108       .  S
C1275      H1281   1.110   1_556  S
C1278      H1282   1.109       .  S
C1278      H1283   1.110       .  S
C1278      H1284   1.111       .  S
C1285      C1286   1.400       .  A
C1285      C1290   1.405       .  A
C1285      H1292   1.084       .  S
C1286      C1287   1.410       .  A
C1287      C1294   1.507   1_554  S
C1287      C1288   1.403       .  A
C1288      C1289   1.410       .  A
C1288      H1293   1.084   1_554  S
C1289      C1290   1.422       .  A
C1290      C1291   1.508       .  S
C1291      H1295   1.111       .  S
C1291      H1296   1.111       .  S
C1291      H1297   1.107       .  S
C1294      H1298   1.111   1_556  S
C1294      H1299   1.108       .  S
C1294      H1300   1.111       .  S
C1301      C1302   1.408       .  A
C1301      C1306   1.405       .  A
C1301      H1308   1.081       .  S
C1302      C1303   1.421       .  A
C1303      C1310   1.510       .  S
C1303      C1304   1.402       .  A
C1304      C1305   1.408       .  A
C1304      H1309   1.083       .  S
C1305      C1306   1.421       .  A
C1306      C1307   1.509       .  S
C1307      H1311   1.111       .  S
C1307      H1312   1.110       .  S
C1307      H1313   1.105       .  S
C1310      H1314   1.110       .  S
C1310      H1315   1.104       .  S
C1310      H1316   1.111       .  S
C1317      C1318   1.408       .  A
C1317      C1322   1.403       .  A
C1317      H1324   1.083       .  S
C1318      C1319   1.422       .  A
C1319      C1326   1.510       .  S
C1319      C1320   1.401       .  A
C1320      C1321   1.407       .  A
C1320      H1325   1.084       .  S
C1321      C1322   1.420       .  A
C1322      C1323   1.509       .  S
C1323      H1327   1.111       .  S
C1323      H1328   1.110       .  S
C1323      H1329   1.105       .  S
C1326      H1330   1.110       .  S
C1326      H1331   1.104       .  S
C1326      H1332   1.111       .  S
C1333      C1335   1.541       .  S
C1333      C1337   1.547       .  S
C1333      C1336   1.528       .  S
C1333      C1762   1.532       .  S
C1334      C1338   1.547   1_556  S
C1334      C1340   1.543   1_556  S
C1334      C1339   1.529   1_556  S
C1334      C1746   1.533       .  S
C1335      C1343   1.377       .  A
C1335      C1338   1.399       .  A
C1336      C1347   1.376       .  A
C1336      C1339   1.385       .  A
C1337      C1351   1.381       .  A
C1337      C1340   1.399       .  A
C1338      C1341   1.380       .  A
C1339      C1345   1.375   1_554  A
C1340      C1348   1.379   1_554  A
C1341      N1342   1.357       .  A
C1341      H1354   1.082   1_554  S
N1342      C1343   1.354       .  A
N1342      C1701   1.433       .  S
C1343      H1344   1.082       .  S
C1345      N1346   1.357   1_556  A
C1345      H1355   1.083       .  S
N1346      C1347   1.357       .  A
N1346      C1730   1.434       .  S
C1347      H1353   1.083       .  S
C1348      N1349   1.356   1_556  A
C1348      H1350   1.081       .  S
N1349      C1351   1.355       .  A
N1349      C1717   1.434       .  S
C1351      H1352   1.082       .  S
C1356      C1358   1.546       .  S
C1356      C1360   1.528       .  S
C1356      C1359   1.541       .  S
C1356      C1765   1.533       .  S
C1357      C1361   1.545       .  S
C1357      C1363   1.530       .  S
C1357      C1362   1.548       .  S
C1357      C1749   1.532       .  S
C1358      C1366   1.380       .  A
C1358      C1361   1.399       .  A
C1359      C1370   1.378       .  A
C1359      C1362   1.397       .  A
C1360      C1374   1.374       .  A
C1360      C1363   1.386       .  A
C1361      C1364   1.381       .  A
C1362      C1368   1.382       .  A
C1363      C1371   1.378       .  A
C1364      N1365   1.356       .  A
C1364      H1377   1.081       .  S
N1365      C1366   1.355       .  A
N1365      C1653   1.435       .  S
C1366      H1367   1.082       .  S
C1368      N1369   1.356       .  A
C1368      H1378   1.082       .  S
N1369      C1370   1.356       .  A
N1369      C1669   1.437       .  S
C1370      H1376   1.081       .  S
C1371      N1372   1.358       .  A
C1371      H1373   1.083       .  S
N1372      C1374   1.358       .  A
N1372      C1682   1.436       .  S
C1374      H1375   1.082       .  S
C1379      C1381   1.546   1_554  S
C1379      C1383   1.542   1_554  S
C1379      C1382   1.528   1_554  S
C1379      C1634   1.532       .  S
C1380      C1384   1.552       .  S
C1380      C1386   1.547       .  S
C1380      C1385   1.534       .  S
C1380      C1621   1.532       .  S
C1381      C1389   1.382       .  A
C1381      C1384   1.405       .  A
C1382      C1393   1.376       .  A
C1382      C1385   1.382       .  A
C1383      C1397   1.378       .  A
C1383      C1386   1.395       .  A
C1384      C1387   1.387       .  A
C1385      C1391   1.383       .  A
C1386      C1394   1.384       .  A
C1387      N1388   1.353       .  A
C1387      H1400   1.082       .  S
N1388      C1389   1.351       .  A
N1388      C1605   1.434       .  S
C1389      H1390   1.082   1_556  S
C1391      N1392   1.359       .  A
C1391      H1401   1.082       .  S
N1392      C1393   1.356       .  A
N1392      C1586   1.438       .  S
C1393      H1399   1.083   1_556  S
C1394      N1395   1.359       .  A
C1394      H1396   1.081       .  S
N1395      C1397   1.358       .  A
N1395      C1570   1.441       .  S
C1397      H1398   1.082   1_556  S
C1402      C1404   1.548       .  S
C1402      C1406   1.532       .  S
C1402      C1405   1.552       .  S
C1402      C1637   1.532       .  S
C1403      C1407   1.541       .  S
C1403      C1409   1.530       .  S
C1403      C1408   1.550       .  S
C1403      C1618   1.533       .  S
C1404      C1412   1.385       .  A
C1404      C1407   1.395       .  A
C1405      C1416   1.387       .  A
C1405      C1408   1.401       .  A
C1406      C1420   1.380       .  A
C1406      C1409   1.384       .  A
C1407      C1410   1.378       .  A
C1408      C1414   1.384       .  A
C1409      C1417   1.377       .  A
C1410      N1411   1.356       .  A
C1410      H1423   1.082       .  S
N1411      C1412   1.359       .  A
N1411      C1557   1.440       .  S
C1412      H1413   1.081       .  S
C1414      N1415   1.355       .  A
C1414      H1424   1.081       .  S
N1415      C1416   1.354       .  A
N1415      C1522   1.439       .  S
C1416      H1422   1.081       .  S
C1417      N1418   1.357       .  A
C1417      H1419   1.082       .  S
N1418      C1420   1.358       .  A
N1418      C1538   1.436       .  S
C1420      H1421   1.083       .  S
O1425     Mg1427   2.150       .  S
C1426      H1465   1.081       .  S
C1426      O1439   1.235       .  S
C1426      O1463   1.269       .  A
Mg1427     O1471   2.318   1_554  S
O1428     Mg1453   2.133       .  S
O1429      C1460   1.270       .  A
O1429     Mg1453   2.299       .  S
C1430      O1432   1.273       .  A
C1430      O1444   1.277       .  A
C1430      C1589   1.502       .  S
O1431      C1459   1.270       .  A
O1432     Mg1464   2.265       .  S
Mg1433     O1439   2.138       .  S
Mg1433     O1435   2.312   1_556  S
C1434      O1472   1.273       .  A
C1434      O1440   1.275       .  A
C1434      C1698   1.496       .  S
O1435      C1442   1.277       .  A
C1437      O1452   1.270   1_545  A
O1438      C1461   1.271       .  A
O1439     Mg1453   2.153   1_556  S
O1440     Mg1470   2.292   1_554  S
C1441      O1454   1.274       .  A
C1441      O1446   1.276       .  A
C1441      C1573   1.503       .  S
C1442      O1469   1.271       .  A
C1442      C1733   1.495       .  S
Mg1443     O1450   2.157       .  S
Mg1443     O1444   2.327   1_554  S
O1445      C1449   1.271   1_655  A
O1446     Mg1453   2.316   1_556  S
O1447      C1466   1.271       .  A
O1448      C1468   1.274       .  A
O1448     Mg1464   2.304   1_554  S
O1450     Mg1464   2.158   1_554  S
O1450      C1461   1.237       .  S
O1451     Mg1470   2.154       .  S
O1452     Mg1464   2.302       .  S
Mg1453     O1469   2.257       .  S
O1456     Mg1464   2.142       .  S
H1458      C1461   1.082       .  S
C1466      O1471   1.277       .  A
C1466      C1602   1.500       .  S
O1467      C1468   1.273       .  A
C1468      C1714   1.492       .  S
O1473     Mg1475   2.149       .  S
C1474      H1513   1.082       .  S
C1474      O1487   1.236       .  S
C1474      O1511   1.271       .  A
Mg1475     O1519   2.325       .  S
O1476     Mg1501   2.147       .  S
O1477      C1508   1.270       .  A
O1477     Mg1501   2.297       .  S
C1478      O1480   1.272       .  A
C1478      O1492   1.274       .  A
C1478      C1666   1.496       .  S
O1479      C1507   1.270       .  A
O1480     Mg1512   2.279       .  S
Mg1481     O1487   2.146       .  S
Mg1481     O1483   2.311       .  S
C1482      O1520   1.273       .  A
C1482      O1488   1.278       .  A
C1482      C1554   1.493       .  S
O1483      C1490   1.275       .  A
C1485      O1500   1.271   1_455  A
O1486      C1509   1.270       .  A
O1487     Mg1501   2.154       .  S
O1488     Mg1518   2.333       .  S
C1489      O1502   1.274       .  A
C1489      O1494   1.274       .  A
C1489      C1685   1.495       .  S
C1490      O1517   1.273       .  A
C1490      C1525   1.488       .  S
Mg1491     O1498   2.148       .  S
Mg1491     O1492   2.290       .  S
O1493      C1497   1.269       .  A
O1494     Mg1501   2.283       .  S
O1495      C1514   1.273       .  A
O1496      C1516   1.275       .  A
O1496     Mg1512   2.307       .  S
O1498     Mg1512   2.157       .  S
O1498      C1509   1.236       .  S
O1499     Mg1518   2.147       .  S
O1500     Mg1512   2.301       .  S
Mg1501     O1517   2.280       .  S
O1504     Mg1512   2.146       .  S
H1506      C1509   1.082       .  S
C1514      O1519   1.279       .  A
C1514      C1650   1.495       .  S
O1515      C1516   1.274       .  A
C1516      C1541   1.488       .  S
C1521      C1522   1.401       .  A
C1521      C1526   1.409       .  A
C1521      H1528   1.084       .  S
C1522      C1523   1.411       .  A
C1523      C1530   1.506       .  S
C1523      C1524   1.404       .  A
C1524      C1525   1.405       .  A
C1524      H1529   1.084       .  S
C1525      C1526   1.418       .  A
C1526      C1527   1.505       .  S
C1527      H1531   1.111       .  S
C1527      H1532   1.104       .  S
C1527      H1533   1.110       .  S
C1530      H1534   1.109       .  S
C1530      H1535   1.111       .  S
C1530      H1536   1.111       .  S
C1537      C1538   1.399       .  A
C1537      C1542   1.406       .  A
C1537      H1544   1.084       .  S
C1538      C1539   1.409       .  A
C1539      C1546   1.506       .  S
C1539      C1540   1.404       .  A
C1540      C1541   1.408       .  A
C1540      H1545   1.084       .  S
C1541      C1542   1.420       .  A
C1542      C1543   1.508       .  S
C1543      H1547   1.111       .  S
C1543      H1548   1.109       .  S
C1543      H1549   1.110       .  S
C1546      H1550   1.110       .  S
C1546      H1551   1.110       .  S
C1546      H1552   1.111       .  S
C1553      C1554   1.409       .  A
C1553      C1558   1.406       .  A
C1553      H1560   1.084       .  S
C1554      C1555   1.419       .  A
C1555      C1562   1.507       .  S
C1555      C1556   1.409       .  A
C1556      C1557   1.403       .  A
C1556      H1561   1.084       .  S
C1557      C1558   1.409       .  A
C1558      C1559   1.505       .  S
C1559      H1563   1.111       .  S
C1559      H1564   1.109       .  S
C1559      H1565   1.110       .  S
C1562      H1566   1.109       .  S
C1562      H1567   1.111       .  S
C1562      H1568   1.111       .  S
C1569      C1570   1.398       .  A
C1569      C1574   1.404       .  A
C1569      H1576   1.084   1_556  S
C1570      C1571   1.409       .  A
C1571      C1578   1.504       .  S
C1571      C1572   1.410       .  A
C1572      C1573   1.413       .  A
C1572      H1577   1.083       .  S
C1573      C1574   1.424       .  A
C1574      C1575   1.506   1_556  S
C1575      H1579   1.111       .  S
C1575      H1580   1.110   1_554  S
C1575      H1581   1.110       .  S
C1578      H1582   1.109       .  S
C1578      H1583   1.110       .  S
C1578      H1584   1.111       .  S
C1585      C1586   1.399       .  A
C1585      C1590   1.406       .  A
C1585      H1592   1.084       .  S
C1586      C1587   1.407       .  A
C1587      C1594   1.505       .  S
C1587      C1588   1.406       .  A
C1588      C1589   1.413       .  A
C1588      H1593   1.084       .  S
C1589      C1590   1.424       .  A
C1590      C1591   1.506   1_556  S
C1591      H1595   1.111       .  S
C1591      H1596   1.110   1_554  S
C1591      H1597   1.110       .  S
C1594      H1598   1.109       .  S
C1594      H1599   1.111       .  S
C1594      H1600   1.111       .  S
C1601      C1602   1.413       .  A
C1601      C1606   1.406       .  A
C1601      H1608   1.083       .  S
C1602      C1603   1.426       .  A
C1603      C1610   1.510       .  S
C1603      C1604   1.405       .  A
C1604      C1605   1.396       .  A
C1604      H1609   1.083       .  S
C1605      C1606   1.404       .  A
C1606      C1607   1.504       .  S
C1607      H1611   1.111       .  S
C1607      H1612   1.110       .  S
C1607      H1613   1.111       .  S
C1610      H1614   1.110       .  S
C1610      H1615   1.110       .  S
C1610      H1616   1.111       .  S
C1617      C1618   1.407       .  A
C1617      C1622   1.403       .  A
C1617      H1624   1.079       .  S
C1618      C1619   1.422       .  A
C1619      C1626   1.512       .  S
C1619      C1620   1.401       .  A
C1620      C1621   1.407       .  A
C1620      H1625   1.080       .  S
C1621      C1622   1.422       .  A
C1622      C1623   1.511       .  S
C1623      H1627   1.111       .  S
C1623      H1628   1.110       .  S
C1623      H1629   1.104       .  S
C1626      H1630   1.110       .  S
C1626      H1631   1.103       .  S
C1626      H1632   1.111       .  S
C1633      C1634   1.408       .  A
C1633      C1638   1.402       .  A
C1633      H1640   1.080       .  S
C1634      C1635   1.422       .  A
C1635      C1642   1.512       .  S
C1635      C1636   1.401       .  A
C1636      C1637   1.406       .  A
C1636      H1641   1.081       .  S
C1637      C1638   1.420       .  A
C1638      C1639   1.510       .  S
C1639      H1643   1.111       .  S
C1639      H1644   1.104       .  S
C1639      H1645   1.110       .  S
C1642      H1646   1.103       .  S
C1642      H1647   1.110       .  S
C1642      H1648   1.111       .  S
C1649      C1650   1.407       .  A
C1649      C1654   1.405       .  A
C1649      H1656   1.084       .  S
C1650      C1651   1.424       .  A
C1651      C1658   1.504       .  S
C1651      C1652   1.406       .  A
C1652      C1653   1.397       .  A
C1652      H1657   1.084       .  S
C1653      C1654   1.408       .  A
C1654      C1655   1.504       .  S
C1655      H1659   1.111       .  S
C1655      H1660   1.111       .  S
C1655      H1661   1.109       .  S
C1658      H1662   1.108       .  S
C1658      H1663   1.110       .  S
C1658      H1664   1.111       .  S
C1665      C1666   1.411       .  A
C1665      C1670   1.401       .  A
C1665      H1672   1.083       .  S
C1666      C1667   1.422       .  A
C1667      C1674   1.508       .  S
C1667      C1668   1.408       .  A
C1668      C1669   1.402       .  A
C1668      H1673   1.084       .  S
C1669      C1670   1.407       .  A
C1670      C1671   1.507       .  S
C1671      H1675   1.111       .  S
C1671      H1676   1.108       .  S
C1671      H1677   1.110       .  S
C1674      H1678   1.110       .  S
C1674      H1679   1.110       .  S
C1674      H1680   1.111       .  S
C1681      C1682   1.401       .  A
C1681      C1686   1.407       .  A
C1681      H1688   1.084       .  S
C1682      C1683   1.408       .  A
C1683      C1690   1.508       .  S
C1683      C1684   1.400       .  A
C1684      C1685   1.411       .  A
C1684      H1689   1.084       .  S
C1685      C1686   1.421       .  A
C1686      C1687   1.507       .  S
C1687      H1691   1.111       .  S
C1687      H1692   1.110       .  S
C1687      H1693   1.110       .  S
C1690      H1694   1.108       .  S
C1690      H1695   1.110       .  S
C1690      H1696   1.111       .  S
C1697      C1698   1.413       .  A
C1697      C1702   1.402       .  A
C1697      H1704   1.083       .  S
C1698      C1699   1.423       .  A
C1699      C1706   1.506       .  S
C1699      C1700   1.405       .  A
C1700      C1701   1.399       .  A
C1700      H1705   1.084       .  S
C1701      C1702   1.404       .  A
C1702      C1703   1.506       .  S
C1703      H1707   1.111   1_554  S
C1703      H1708   1.111       .  S
C1703      H1709   1.109   1_554  S
C1706      H1710   1.110       .  S
C1706      H1711   1.106       .  S
C1706      H1712   1.111       .  S
C1713      C1714   1.410       .  A
C1713      C1718   1.405       .  A
C1713      H1720   1.084       .  S
C1714      C1715   1.422       .  A
C1715      C1722   1.509       .  S
C1715      C1716   1.405       .  A
C1716      C1717   1.398       .  A
C1716      H1721   1.083       .  S
C1717      C1718   1.406       .  A
C1718      C1719   1.505       .  S
C1719      H1723   1.111       .  S
C1719      H1724   1.110   1_554  S
C1719      H1725   1.110       .  S
C1722      H1726   1.109       .  S
C1722      H1727   1.110       .  S
C1722      H1728   1.111       .  S
C1729      C1730   1.397       .  A
C1729      C1734   1.403       .  A
C1729      H1736   1.084       .  S
C1730      C1731   1.408       .  A
C1731      C1738   1.506   1_554  S
C1731      C1732   1.403       .  A
C1732      C1733   1.410       .  A
C1732      H1737   1.084   1_554  S
C1733      C1734   1.424       .  A
C1734      C1735   1.507       .  S
C1735      H1739   1.111       .  S
C1735      H1740   1.110       .  S
C1735      H1741   1.105       .  S
C1738      H1742   1.111   1_556  S
C1738      H1743   1.108       .  S
C1738      H1744   1.111       .  S
C1745      C1746   1.408       .  A
C1745      C1750   1.404       .  A
C1745      H1752   1.082       .  S
C1746      C1747   1.422       .  A
C1747      C1754   1.510       .  S
C1747      C1748   1.402       .  A
C1748      C1749   1.406       .  A
C1748      H1753   1.082       .  S
C1749      C1750   1.421       .  A
C1750      C1751   1.509       .  S
C1751      H1755   1.111       .  S
C1751      H1756   1.109       .  S
C1751      H1757   1.105       .  S
C1754      H1758   1.110       .  S
C1754      H1759   1.104       .  S
C1754      H1760   1.111       .  S
C1761      C1762   1.407       .  A
C1761      C1766   1.403       .  A
C1761      H1768   1.083       .  S
C1762      C1763   1.422       .  A
C1763      C1770   1.510       .  S
C1763      C1764   1.402       .  A
C1764      C1765   1.407       .  A
C1764      H1769   1.083       .  S
C1765      C1766   1.422       .  A
C1766      C1767   1.509       .  S
C1767      H1771   1.111       .  S
C1767      H1772   1.110       .  S
C1767      H1773   1.105       .  S
C1770      H1774   1.110       .  S
C1770      H1775   1.105       .  S
C1770      H1776   1.111       .  S
