geometry optimzed in LAMMPS
_audit_creation_date              2020-12-01 
_audit_creation_method            'lammps2cif' 
_symmetry_space_group_name_H-M    'P1' 
_symmetry_Int_Tables_number       1 
_symmetry_cell_setting            triclinic 
loop_ 
_symmetry_equiv_pos_as_xyz 
  x,y,z 
_cell_length_a                    50.82025753 
_cell_length_b                    51.26914415804509 
_cell_length_c                    17.252198470486366 
_cell_angle_alpha                 90.13154460647783 
_cell_angle_beta                  90.51989090792213 
_cell_angle_gamma                 120.94802706031666 
loop_ 
_atom_site_label 
_atom_site_type_symbol 
_atom_site_fract_x 
_atom_site_fract_y 
_atom_site_fract_z 
_atom_site_charge 
C1          C  0.33578088  0.16662834  0.15718229     0.30300
C2          C  0.33387960  0.16843483  0.99819143     0.30300
C3          C  0.35211053  0.15303351  0.11334794    -0.05900
C4          C  0.30328767  0.15072344  0.11939584    -0.06600
C5          C  0.34989971  0.19885911  0.12103602    -0.06500
C6          C  0.35045928  0.15342480  0.03343024    -0.05900
C7          C  0.30245949  0.15125994  0.03826683    -0.06600
C8          C  0.34795938  0.19932053  0.04030077    -0.06500
C9          C  0.36324007  0.13745920  0.00489699    -0.31900
N10         N  0.37413573  0.12869802  0.06524790     0.14600
C11         C  0.36705273  0.13768270  0.13210323    -0.31900
H12         H  0.37177428  0.13278195  0.18991419     0.16500
C13         C  0.27214754  0.13842550  0.01600099    -0.30900
N14         N  0.25462782  0.12940079  0.08024235     0.13300
C15         C  0.27325911  0.13770362  0.14381039    -0.30900
C16         C  0.35853662  0.22887113  0.01872820    -0.31200
N17         N  0.36856579  0.24685253  0.08270501     0.13800
H18         H  0.35915667  0.23692506  0.96057540     0.16500
C19         C  0.36316365  0.22893216  0.14570025    -0.31200
H20         H  0.36858704  0.23738531  0.20470361     0.16500
H21         H  0.26553018  0.13516845  0.20285765     0.16500
H22         H  0.36344661  0.13162438  0.94476971     0.16500
H23         H  0.26324440  0.13647169  0.95772358     0.16500
C24         C  0.33934067  0.16923086  0.49712396     0.30300
C25         C  0.33391267  0.16894444  0.65537767     0.30300
C26         C  0.35280359  0.15321400  0.54297270    -0.05900
C27         C  0.35384172  0.20070645  0.53621570    -0.06600
C28         C  0.30628628  0.15450236  0.52854125    -0.06500
C29         C  0.35029131  0.15319155  0.62269985    -0.05900
C30         C  0.35157814  0.20088933  0.61689939    -0.06600
C31         C  0.30353816  0.15483502  0.60887121    -0.06500
C32         C  0.36358367  0.13756258  0.65260769    -0.31900
N33         N  0.37352679  0.12776476  0.59261665     0.14600
C34         C  0.36748280  0.13767066  0.52549993    -0.31900
H35         H  0.37297227  0.13344402  0.46810903     0.16500
C36         C  0.36269402  0.23094149  0.63832982    -0.30900
N37         N  0.37258027  0.24859990  0.57398139     0.13300
C38         C  0.36590061  0.23012665  0.51138097    -0.30900
C39         C  0.27277243  0.14268936  0.62436224    -0.31200
N40         N  0.25686659  0.13430052  0.55624421     0.13800
H41         H  0.26260114  0.13933372  0.68093495     0.16500
C42         C  0.27708091  0.14186838  0.49763987    -0.31200
H43         H  0.27061656  0.13805094  0.43689056     0.16500
H44         H  0.36902645  0.23762194  0.45195448     0.16500
H45         H  0.36517917  0.13298211  0.71312341     0.16500
H46         H  0.36233784  0.23922482  0.69574426     0.16500
C47         C  0.16532263  0.33147171  0.00080715     0.30300
C48         C  0.16236975  0.33146921  0.84172258     0.30300
C49         C  0.14797501  0.34619737  0.96478365    -0.05900
C50         C  0.19621875  0.34796210  0.95915444    -0.06600
C51         C  0.14835577  0.29993260  0.96087241    -0.06500
C52         C  0.14713678  0.34663093  0.88424624    -0.05900
C53         C  0.19503960  0.34761816  0.87855437    -0.06600
C54         C  0.14821956  0.29990019  0.87994710    -0.06500
C55         C  0.13161402  0.36114931  0.86267961    -0.31900
N56         N  0.12213718  0.36870642  0.92775828     0.14600
C57         C  0.13180423  0.35961240  0.99015002    -0.31900
H58         H  0.12741340  0.36285529  0.04960270     0.16500
C59         C  0.22511778  0.36042756  0.85400710    -0.30900
N60         N  0.24398931  0.36901039  0.91720063     0.13300
C61         C  0.22660791  0.36173373  0.98166673    -0.30900
C62         C  0.13427359  0.26985445  0.85603301    -0.31200
N63         N  0.12457621  0.25190545  0.91966945     0.13800
H64         H  0.13080029  0.26158930  0.79707814     0.16500
C65         C  0.13218828  0.26995230  0.98364608    -0.31200
H66         H  0.12593493  0.26178014  0.04173057     0.16500
H67         H  0.23538727  0.36547401  0.04065853     0.16500
H68         H  0.12772934  0.36605585  0.80416771     0.16500
H69         H  0.23282507  0.36257361  0.79493797     0.16500
C70         C  0.16520984  0.33449796  0.34175703     0.30300
C71         C  0.16408246  0.33564625  0.50077415     0.30300
C72         C  0.14569057  0.34639568  0.37761649    -0.05900
C73         C  0.15096721  0.30301125  0.38183520    -0.06600
C74         C  0.19640468  0.35258949  0.38332873    -0.06500
C75         C  0.14585399  0.34764673  0.45805104    -0.05900
C76         C  0.15096044  0.30372762  0.46305637    -0.06600
C77         C  0.19593079  0.35274390  0.46358740    -0.06500
C78         C  0.12727058  0.35864650  0.47917559    -0.31900
N79         N  0.11519814  0.36340883  0.41389445     0.14600
C80         C  0.12600190  0.35566498  0.35164100    -0.31900
H81         H  0.11974575  0.35653766  0.29200555     0.16500
C82         C  0.13831568  0.27402551  0.48776179    -0.30900
N83         N  0.12988959  0.25542102  0.42468879     0.13300
C84         C  0.13672316  0.27265774  0.36002818    -0.30900
C85         C  0.22592774  0.36581535  0.48842732    -0.31200
N86         N  0.24469292  0.37558242  0.42606731     0.13800
H87         H  0.23359442  0.36707989  0.54765627     0.16500
C88         C  0.22669071  0.36650922  0.36123364    -0.31200
H89         H  0.23467249  0.36820942  0.30271142     0.16500
H90         H  0.13142357  0.26347505  0.30167349     0.16500
H91         H  0.12288908  0.36295368  0.53772435     0.16500
H92         H  0.13514193  0.26630921  0.54705214     0.16500
O93         O  0.04017516  0.48741637  0.06544964    -0.88000
C94         C  0.04249387  0.04464238  0.88644729     0.88000
Mg95       Mg  0.00689621  0.43915979  0.06639146     1.58100
O96         O  0.00869908  0.05080329  0.05753208    -0.87700
O97         O  0.05192489  0.02981350  0.13478822    -0.75100
C98         C  0.37571957  0.43124384  0.93800696     0.93100
O99         O  0.02476923  0.47087554  0.88527594    -0.74900
O100        O  0.38944668  0.41627149  0.93373354    -0.82400
Mg101      Mg  0.06478212  0.00783930  0.95801721     1.58000
C102        C  0.42856718  0.05489556  0.02207931     0.93000
O103        O  0.10958600  0.04299404  0.02231530    -0.80600
H104        H  0.01071169  0.05852327  0.17162085    -0.06000
C105        C  0.45448169  0.49728525  0.86248481     0.87900
O106        O  0.47426412  0.45000901  0.12067087    -0.75200
O107        O  0.04908303  0.03960028  0.95168780    -0.87900
O108        O  0.45628348  0.06829395  0.99882048    -0.80700
C109        C  0.05129199  0.12228792  0.95875326     0.93100
C110        C  0.12321287  0.07082945  0.04421053     0.93000
Mg111      Mg  0.43336396  0.49268369  0.02858321     1.58000
O112        O  0.38969227  0.45884080  0.96087074    -0.80700
O113        O  0.46705655  0.02390193  0.11398771    -0.74900
O114        O  0.06632762  0.11019007  0.98360746    -0.80700
O115        O  0.08122172  0.47068144  0.96238496    -0.82400
O116        O  0.42971449  0.38908696  0.00926439    -0.80800
C117        C  0.49485968  0.04479413  0.10530114     0.87400
O118        O  0.44781611  0.46025203  0.03847351    -0.87900
O119        O  0.45558633  0.00954699  0.93150301    -0.88000
O120        O  0.44820678  0.47003841  0.85461708    -0.75100
Mg121      Mg  0.05722246  0.06756722  0.05305401     1.58000
O122        O  0.02227010  0.10680865  0.95089262    -0.82400
H123        H  0.04727893  0.48876367  0.17996507    -0.06200
O124        O  0.48904486  0.44787879  0.94041836    -0.87700
H125        H  0.48900611  0.43947922  0.82726281    -0.06000
H126        H  0.43921005  0.45580943  0.15200846    -0.06200
C127        C  0.99745684  0.44951193  0.89780573     0.87400
C128        C  0.04582424  0.00265211  0.12590186     0.88000
C129        C  0.45279284  0.45502126  0.10519399     0.88000
H130        H  0.45046343  0.01053568  0.81677417    -0.06100
O131        O  0.02068980  0.04961454  0.87553839    -0.75200
Mg132      Mg  0.44064956  0.43203462  0.93826600     1.58000
H133        H  0.05503295  0.04390728  0.83702798    -0.06200
C134        C  0.06699409  0.44204371  0.97258080     0.93000
O135        O  0.47255619  0.39207689  0.05202101    -0.82400
C136        C  0.44371031  0.37671704  0.03949587     0.93100
O137        O  0.10847154  0.08461155  0.05106328    -0.82400
Mg138      Mg  0.48931875  0.05706495  0.93547072     1.58200
O139        O  0.03970749  0.42790061  0.99923058    -0.80700
O140        O  0.41286386  0.02612286  0.02821649    -0.82400
O141        O  0.48621166  0.04230890  0.45780058    -0.88000
C142        C  0.05140939  0.04709454  0.59904351     0.88000
Mg143      Mg  0.43803313  0.00879048  0.46397719     1.58100
O144        O  0.05067343  0.01204539  0.42284000    -0.87700
O145        O  0.02454410  0.05282206  0.35821017    -0.75100
C146        C  0.43463036  0.37835821  0.53838293     0.93100
O147        O  0.47612292  0.02857890  0.64002230    -0.74900
O148        O  0.42030654  0.39211534  0.55228438    -0.82400
Mg149      Mg  0.01010321  0.06690714  0.54313567     1.58000
C150        C  0.05337950  0.43025983  0.44068930     0.93000
O151        O  0.04164755  0.11098510  0.47439172    -0.80600
H152        H  0.05336495  0.01240965  0.30736635    -0.06000
C153        C  0.50413865  0.45658347  0.61966331     0.87900
O154        O  0.44723909  0.47729035  0.38137401    -0.75200
O155        O  0.04298719  0.05255300  0.53684077    -0.87900
O156        O  0.06962542  0.45835186  0.46038115    -0.80700
C157        C  0.12652848  0.05774113  0.50599007     0.93100
C158        C  0.06851148  0.12479344  0.44568878     0.93000
Mg159      Mg  0.49432219  0.43728773  0.44975184     1.58000
O160        O  0.46213089  0.39220903  0.51385145    -0.80700
O161        O  0.02038670  0.47088638  0.36357617    -0.74900
O162        O  0.11220597  0.07122840  0.48708685    -0.80700
O163        O  0.47185578  0.08359184  0.57061596    -0.82400
O164        O  0.39048353  0.43018440  0.49574878    -0.80800
C165        C  0.04211023  0.49840946  0.37049230     0.87400
O166        O  0.46110725  0.45101151  0.45274002    -0.87900
O167        O  0.01387214  0.45961083  0.54607514    -0.88000
O168        O  0.47673455  0.44962502  0.63290890    -0.75100
Mg169      Mg  0.06653079  0.06015071  0.42854817     1.58000
O170        O  0.11272933  0.02891241  0.51244231    -0.82400
H171        H  0.48287031  0.04820537  0.34441007    -0.06200
O172        O  0.45022203  0.48921876  0.56498978    -0.87700
H173        H  0.44457399  0.48665410  0.67962619    -0.06000
H174        H  0.45409601  0.44441847  0.33835492    -0.06200
C175        C  0.45456922  0.00123623  0.62920625     0.87400
C176        C  0.99748178  0.04613263  0.37487725     0.88000
C177        C  0.45382400  0.45665958  0.38915491     0.88000
H178        H  0.01964891  0.45455899  0.65863584    -0.06100
O179        O  0.05773023  0.02619413  0.60500720    -0.75200
Mg180      Mg  0.43561052  0.44197974  0.55813090     1.58400
H181        H  0.05260153  0.05987332  0.65021035    -0.06200
C182        C  0.44268275  0.06811865  0.56479728     0.93000
O183        O  0.38954825  0.47187618  0.46643476    -0.82400
C184        C  0.37595909  0.44312774  0.47431524     0.93100
O185        O  0.08296544  0.11100678  0.43250157    -0.82400
Mg186      Mg  0.06202444  0.49282657  0.53268056     1.58200
O187        O  0.42880391  0.04105239  0.53720682    -0.80700
O188        O  0.02418496  0.41617333  0.43904446    -0.82400
C189        C  0.08464094  0.20493641  0.40078758    -0.05400
C190        C  0.11523623  0.22273337  0.42589468     0.00500
C191        C  0.13136123  0.20831055  0.44917324    -0.08100
C192        C  0.11550689  0.17628325  0.45257146    -0.05500
C193        C  0.08420279  0.15829674  0.43232110     0.00500
C194        C  0.06881622  0.17284141  0.40267204    -0.08000
C195        C  0.03633298  0.15474861  0.37018743     0.62400
H196        H  0.07315508  0.21655485  0.38061108     0.13100
H197        H  0.12733258  0.16509756  0.47358910     0.13100
C198        C  0.16526956  0.22681418  0.46962798     0.62600
F199        F  0.02832976  0.17310766  0.33026606    -0.22500
F200        F  0.01572349  0.14101168  0.42957733    -0.19900
F201        F  0.03387795  0.13271837  0.31915699    -0.19600
F202        F  0.16941057  0.24198837  0.53911009    -0.19600
F203        F  0.18095595  0.24778281  0.41206879    -0.19900
F204        F  0.17790440  0.20859533  0.47701148    -0.22600
C205        C  0.29113220  0.38128249  0.48528420    -0.05400
C206        C  0.27780955  0.39143231  0.43084507     0.00500
C207        C  0.29692663  0.41905123  0.39109711    -0.08100
C208        C  0.32891976  0.43438304  0.40450164    -0.05500
C209        C  0.34217934  0.42430168  0.45979004     0.00500
C210        C  0.32263615  0.39785840  0.50342380    -0.08000
C211        C  0.33405617  0.38811775  0.57297179     0.62400
H212        H  0.27615422  0.36050785  0.51602174     0.13100
H213        H  0.34384525  0.45489501  0.37270182     0.13100
C214        C  0.28390884  0.43348233  0.33830600     0.62600
F215        F  0.31008243  0.36622433  0.61633629    -0.22500
F216        F  0.35171392  0.41279489  0.62124070    -0.19900
F217        F  0.35128615  0.37599974  0.54864841    -0.19600
F218        F  0.25934726  0.43318471  0.37317653    -0.19600
F219        F  0.27451774  0.41787331  0.26858233    -0.19900
F220        F  0.30554362  0.46349802  0.32253630    -0.22600
C221        C  0.10710839  0.40400522  0.36818512    -0.05400
C222        C  0.09675787  0.37733676  0.41138085     0.00500
C223        C  0.07013987  0.36651861  0.45679388    -0.08100
C224        C  0.05699000  0.38468972  0.46492783    -0.05500
C225        C  0.06840011  0.41236867  0.42550639     0.00500
C226        C  0.09300304  0.42153292  0.37340992    -0.08000
C227        C  0.10396538  0.44927424  0.32279821     0.62400
H228        H  0.12713715  0.41159195  0.33248125     0.13100
H229        H  0.03750557  0.37714000  0.50282377     0.13100
C230        C  0.05476792  0.33591677  0.49671053     0.62600
F231        F  0.12511038  0.45165249  0.26889832    -0.22500
F232        F  0.11770200  0.47519393  0.36832507    -0.19900
F233        F  0.07932973  0.44748486  0.28296590    -0.19600
F234        F  0.06179067  0.34016276  0.57504739    -0.19600
F235        F  0.06363229  0.31663632  0.46643950    -0.19900
F236        F  0.02328573  0.32167653  0.48706416    -0.22600
C237        C  0.07507770  0.20616892  0.94105909    -0.05400
C238        C  0.10580220  0.21926619  0.92033861     0.00500
C239        C  0.11816570  0.20049112  0.90750192    -0.08100
C240        C  0.09920203  0.16885328  0.91759471    -0.05500
C241        C  0.06841903  0.15550619  0.94065850     0.00500
C242        C  0.05592912  0.17459739  0.95149206    -0.08000
C243        C  0.02311620  0.16244415  0.97705739     0.62400
H244        H  0.06651351  0.22138519  0.95064975     0.13100
H245        H  0.10854025  0.15427612  0.90867810     0.13100
C246        C  0.15151880  0.21406627  0.88588605     0.62600
F247        F  0.01723096  0.18565044  0.98936665    -0.22500
F248        F  0.01781584  0.14673433  0.04578743    -0.19900
F249        F  0.00284856  0.14343740  0.92037019    -0.19600
F250        F  0.17016269  0.23554685  0.94075033    -0.19600
F251        F  0.15659738  0.22775734  0.81424954    -0.19900
F252        F  0.15972607  0.19218824  0.88194273    -0.22600
C253        C  0.29419576  0.41424229  0.89360426    -0.05400
C254        C  0.27693932  0.38376249  0.91610577     0.00500
C255        C  0.29214144  0.36820927  0.93718365    -0.08100
C256        C  0.32440443  0.38429870  0.93998564    -0.05500
C257        C  0.34196441  0.41542609  0.92240061     0.00500
C258        C  0.32658855  0.43050833  0.89585784    -0.08000
C259        C  0.34386127  0.46331163  0.86866209     0.62400
H260        H  0.28189517  0.42538073  0.87612347     0.13100
H261        H  0.33610904  0.37280798  0.95957107     0.13100
C262        C  0.27428702  0.33480947  0.95776657     0.62600
F263        F  0.32468581  0.47078900  0.82984391    -0.22500
F264        F  0.36679444  0.46773851  0.81821686    -0.19900
F265        F  0.35660577  0.48283435  0.93146367    -0.19600
F266        F  0.25224581  0.31854105  0.90136286    -0.19600
F267        F  0.26024721  0.33122487  0.02829952    -0.19900
F268        F  0.29315784  0.32277466  0.96338645    -0.22600
C269        C  0.12702435  0.41821760  0.94700436    -0.05400
C270        C  0.10823327  0.38712546  0.93149301     0.00500
C271        C  0.07624053  0.37441863  0.92396991    -0.08100
C272        C  0.06379694  0.39318570  0.93616627    -0.05500
C273        C  0.08244638  0.42442576  0.95429073     0.00500
C274        C  0.11492182  0.43733230  0.95791542    -0.08000
C275        C  0.13707692  0.47078157  0.97570043     0.62400
H276        H  0.15143263  0.42717620  0.95148705     0.13100
H277        H  0.03922261  0.38342151  0.93205405     0.13100
C278        C  0.05552771  0.34102807  0.90418977     0.62600
F279        F  0.16704021  0.47729524  0.98150964    -0.22500
F280        F  0.12970195  0.47861942  0.04552737    -0.19900
F281        F  0.13587207  0.48848060  0.91696074    -0.19600
F282        F  0.05816303  0.32354048  0.96112369    -0.19600
F283        F  0.06398455  0.33472153  0.83385708    -0.19900
F284        F  0.02504486  0.33291702  0.89844360    -0.22600
C285        C  0.18288524  0.35907327  0.71644917    -0.05400
C286        C  0.15990187  0.33287138  0.75334338     0.00500
C287        C  0.13341764  0.31308488  0.70729627    -0.08100
C288        C  0.13641418  0.31424993  0.62622690    -0.05500
C289        C  0.16251472  0.33742168  0.58925260     0.00500
C290        C  0.18298516  0.36305619  0.63607623    -0.08000
C291        C  0.20203662  0.39587439  0.60901432     0.62400
H292        H  0.19931528  0.37823175  0.75138798     0.13100
H293        H  0.11699015  0.29809397  0.59112428     0.13100
C294        C  0.10079222  0.29300740  0.73631179     0.62600
F295        F  0.19515121  0.41387138  0.65424544    -0.22500
F296        F  0.19622604  0.39992285  0.53316516    -0.19900
F297        F  0.23296333  0.40638489  0.61881129    -0.19600
F298        F  0.09749037  0.29571973  0.81452657    -0.19600
F299        F  0.09047063  0.26289545  0.71881492    -0.19900
F300        F  0.08191465  0.30107848  0.69839289    -0.22600
C301        C  0.17257978  0.35881770  0.12728246    -0.05400
C302        C  0.16922952  0.33297743  0.08933392     0.00500
C303        C  0.17519587  0.31337668  0.13514800    -0.08100
C304        C  0.17259583  0.31421891  0.21597226    -0.05500
C305        C  0.16860987  0.33629748  0.25353597     0.00500
C306        C  0.17409578  0.36190826  0.20825997    -0.08000
C307        C  0.18381502  0.39371274  0.23811926     0.62400
H308        H  0.17613142  0.37801190  0.09306552     0.13100
H309        H  0.17668564  0.29904969  0.25041410     0.13100
C310        C  0.18785870  0.29388468  0.10647790     0.62600
F311        F  0.21046932  0.41471711  0.20131229    -0.22500
F312        F  0.18996212  0.39799620  0.31649963    -0.19900
F313        F  0.16125450  0.40024677  0.21999723    -0.19600
F314        F  0.19503460  0.29729062  0.02898584    -0.19600
F315        F  0.16706899  0.26356711  0.12096951    -0.19900
F316        F  0.21465645  0.30200248  0.14710329    -0.22600
C317        C  0.41521522  0.12085792  0.64078780    -0.05400
C318        C  0.38781773  0.10972307  0.59795950     0.00500
C319        C  0.37648249  0.08244278  0.55495986    -0.08100
C320        C  0.39507432  0.06978571  0.54668048    -0.05500
C321        C  0.42382330  0.08209238  0.58417658     0.00500
C322        C  0.43323772  0.10712032  0.63615626    -0.08000
C323        C  0.46180340  0.11936041  0.68695657     0.62400
H324        H  0.42304562  0.14125810  0.67534175     0.13100
H325        H  0.38688433  0.05000920  0.50929808     0.13100
C326        C  0.34494909  0.06576057  0.51683215     0.62600
F327        F  0.46288007  0.13919795  0.74331218    -0.22500
F328        F  0.48775396  0.13488989  0.64221187    -0.19900
F329        F  0.46204045  0.09563517  0.72438256    -0.19600
F330        F  0.34804793  0.06918896  0.43737680    -0.19600
F331        F  0.32605306  0.07595565  0.54228649    -0.19900
F332        F  0.33063202  0.03511274  0.53397712    -0.22600
C333        C  0.37646699  0.29398389  0.51628206    -0.05400
C334        C  0.38753223  0.28131595  0.57019200     0.00500
C335        C  0.41565368  0.30073081  0.60991435    -0.08100
C336        C  0.42987662  0.33247163  0.60046428    -0.05500
C337        C  0.41828917  0.34497860  0.54783613     0.00500
C338        C  0.39230719  0.32539905  0.50145140    -0.08000
C339        C  0.38353699  0.33724204  0.43109371     0.62400
H340        H  0.35609731  0.27870450  0.48283777     0.13100
H341        H  0.45062335  0.34775214  0.63268368     0.13100
C342        C  0.43194154  0.28807359  0.65679819     0.62600
F343        F  0.35868743  0.31418672  0.39101167    -0.22500
F344        F  0.40812379  0.35077824  0.38122511    -0.19900
F345        F  0.37602920  0.35844996  0.45265564    -0.19600
F346        F  0.43284544  0.26552520  0.61477097    -0.19600
F347        F  0.41683957  0.27621041  0.72556908    -0.19900
F348        F  0.46192098  0.31035172  0.67438458    -0.22600
C349        C  0.17210710  0.10541418  0.55511782    -0.05400
C350        C  0.16027780  0.07658352  0.52015068     0.00500
C351        C  0.18105713  0.06765716  0.49481605    -0.08100
C352        C  0.21254050  0.08690276  0.51073968    -0.05500
C353        C  0.22413164  0.11527071  0.54696326     0.00500
C354        C  0.20386068  0.12524593  0.56737339    -0.08000
C355        C  0.21583939  0.15713703  0.59843384     0.62400
H356        H  0.15624591  0.11246907  0.57243596     0.13100
H357        H  0.22873282  0.08024569  0.49375185     0.13100
C358        C  0.17062442  0.03902949  0.44694845     0.62600
F359        F  0.19334583  0.16474273  0.59678538    -0.22500
F360        F  0.23994903  0.17802067  0.55369936    -0.19900
F361        F  0.22585997  0.15924089  0.67416137    -0.19600
F362        F  0.15216750  0.03794364  0.38606256    -0.19600
F363        F  0.15454131  0.01367973  0.49291861    -0.19900
F364        F  0.19518323  0.03820234  0.41556110    -0.22600
C365        C  0.37538892  0.08256783  0.09371095    -0.05400
C366        C  0.38886576  0.11117690  0.05879866     0.00500
C367        C  0.41640378  0.12215252  0.01740934    -0.08100
C368        C  0.42850471  0.10311685  0.00780833    -0.05500
C369        C  0.41435825  0.07364652  0.03922803     0.00500
C370        C  0.38763354  0.06347902  0.08524649    -0.08000
C371        C  0.37191992  0.03294067  0.12601538     0.62400
H372        H  0.35459051  0.07504884  0.12615407     0.13100
H373        H  0.44901548  0.11113418  0.97385198     0.13100
C374        C  0.43344547  0.15424566  0.98548075     0.62600
F375        F  0.34972937  0.03022973  0.17684552    -0.22500
F376        F  0.39320665  0.02958876  0.16849492    -0.19900
F377        F  0.35768191  0.00968142  0.07199867    -0.19600
F378        F  0.43700452  0.17478165  0.04279164    -0.19600
F379        F  0.41753860  0.15666704  0.92343132    -0.19900
F380        F  0.46224665  0.16221484  0.95964245    -0.22600
C381        C  0.39327901  0.32932438  0.06184684    -0.05400
C382        C  0.42551428  0.34333283  0.05821022     0.00500
C383        C  0.43869282  0.32464602  0.06691859    -0.08100
C384        C  0.41906282  0.29313792  0.07906525    -0.05500
C385        C  0.38712598  0.27953998  0.08051245     0.00500
C386        C  0.37391819  0.29769730  0.07137316    -0.08000
C387        C  0.33937180  0.28331746  0.07051065     0.62400
H388        H  0.38309291  0.34325758  0.05520741     0.13100
H389        H  0.42832149  0.27836653  0.08490932     0.13100
C390        C  0.47299077  0.33708194  0.06072567     0.62600
F391        F  0.33079623  0.30483204  0.06337285    -0.22500
F392        F  0.32748735  0.26768507  0.13873701    -0.19900
F393        F  0.32677400  0.26326990  0.00863869    -0.19600
F394        F  0.48834738  0.35680272  0.12187226    -0.19600
F395        F  0.48370657  0.35209909  0.99119148    -0.19900
F396        F  0.47987318  0.31422507  0.06307135    -0.22600
C397        C  0.17113702  0.06949225  0.06636825    -0.05400
C398        C  0.15723697  0.08722977  0.06011737     0.00500
C399        C  0.17650425  0.11963403  0.06445112    -0.08100
C400        C  0.20839565  0.13252205  0.07535659    -0.05500
C401        C  0.22176306  0.11464466  0.07936849     0.00500
C402        C  0.20313087  0.08273880  0.07431653    -0.08000
C403        C  0.21743206  0.06306155  0.07470789     0.62400
H404        H  0.15684438  0.04497002  0.06277716     0.13100
H405        H  0.22364300  0.15694678  0.07798248     0.13100
C406        C  0.16435075  0.14102038  0.05391634     0.62600
F407        F  0.19548908  0.03242428  0.07160264    -0.22500
F408        F  0.23462694  0.06842056  0.14165016    -0.19900
F409        F  0.23626281  0.06984464  0.01126088    -0.19600
F410        F  0.14409587  0.13670269  0.11237695    -0.19600
F411        F  0.14981042  0.13572296  0.98248204    -0.19900
F412        F  0.18759739  0.17128292  0.05653290    -0.22600
C413        C  0.31211031  0.14329516  0.86868134    -0.05400
C414        C  0.33507736  0.16883455  0.90937840     0.00500
C415        C  0.36091018  0.19032343  0.86562247    -0.08100
C416        C  0.35765758  0.19047191  0.78494810    -0.05500
C417        C  0.33241754  0.16716238  0.74404050     0.00500
C418        C  0.31168996  0.14077434  0.78740553    -0.08000
C419        C  0.29064169  0.10859867  0.75570391     0.62400
H420        H  0.29585586  0.12352945  0.90101768     0.13100
H421        H  0.37713230  0.20745707  0.75301757     0.13100
C422        C  0.39351690  0.21154864  0.89611368     0.62600
F423        F  0.26036749  0.09993445  0.76815722    -0.22500
F424        F  0.29660349  0.08872266  0.79542205    -0.19900
F425        F  0.29435917  0.10487894  0.67834077    -0.19600
F426        F  0.39823811  0.20671385  0.97212461    -0.19600
F427        F  0.40122923  0.24147420  0.88758232    -0.19900
F428        F  0.41371642  0.20724893  0.85244957    -0.22600
C429        C  0.36435870  0.18766718  0.28358511    -0.05400
C430        C  0.33814434  0.16436258  0.24528089     0.00500
C431        C  0.31896623  0.13788874  0.28984009    -0.08100
C432        C  0.32020475  0.14085555  0.37085302    -0.05500
C433        C  0.34235799  0.16750048  0.40923921     0.00500
C434        C  0.36806912  0.18833577  0.36455672    -0.08000
C435        C  0.40072213  0.20856132  0.39502138     0.62400
H436        H  0.38342194  0.20427165  0.24957190     0.13100
H437        H  0.30457917  0.12127228  0.40487803     0.13100
C438        C  0.29908158  0.10548552  0.25929121     0.62600
F439        F  0.41958852  0.20066784  0.35734484    -0.22500
F440        F  0.40416601  0.20566250  0.47328461    -0.19900
F441        F  0.41083713  0.23866953  0.37884495    -0.19600
F442        F  0.30187024  0.10218173  0.18110023    -0.19600
F443        F  0.26867169  0.09497825  0.27571794    -0.19900
F444        F  0.30754904  0.08705068  0.29696092    -0.22600
C445        C  0.33798457  0.66560953  0.14387733     0.30300
C446        C  0.33654013  0.66815951  0.98504214     0.30300
C447        C  0.35413330  0.65184151  0.09970071    -0.05900
C448        C  0.30564485  0.65041776  0.10577489    -0.06600
C449        C  0.35240447  0.69782633  0.10868991    -0.06500
C450        C  0.35239302  0.65239801  0.01991973    -0.05900
C451        C  0.30497902  0.65139063  0.02469518    -0.06600
C452        C  0.35112660  0.69887418  0.02797829    -0.06500
C453        C  0.36432860  0.63581784  0.99073037    -0.31900
N454        N  0.37579057  0.62720316  0.05018784     0.14600
C455        C  0.36910765  0.63639800  0.11752057    -0.31900
H456        H  0.37424892  0.63173423  0.17513343     0.16500
C457        C  0.27482551  0.63978947  0.00248736    -0.30900
N458        N  0.25722801  0.63088544  0.06671666     0.13300
C459        C  0.27579668  0.63849666  0.13013772    -0.30900
C460        C  0.36059537  0.72835040  0.00802630    -0.31200
N461        N  0.36830663  0.74541427  0.07369128     0.13800
H462        H  0.36145659  0.73682521  0.95013080     0.16500
C463        C  0.36315100  0.72710613  0.13548493    -0.31200
H464        H  0.36626179  0.73461478  0.19528875     0.16500
H465        H  0.26808868  0.63607456  0.18925354     0.16500
H466        H  0.36289577  0.62906650  0.93110213     0.16500
H467        H  0.26613502  0.63838616  0.94424771     0.16500
C468        C  0.34155352  0.66935686  0.48386254     0.30300
C469        C  0.33693655  0.66881608  0.64240496     0.30300
C470        C  0.35422639  0.65232108  0.52843266    -0.05900
C471        C  0.35734575  0.70083459  0.52382439    -0.06600
C472        C  0.30858543  0.65540861  0.51630980    -0.06500
C473        C  0.35222458  0.65238234  0.60826410    -0.05900
C474        C  0.35536828  0.70070699  0.60464075    -0.06600
C475        C  0.30633395  0.65550124  0.59685946    -0.06500
C476        C  0.36550264  0.63676931  0.63744112    -0.31900
N477        N  0.37493865  0.62679720  0.57698666     0.14600
C478        C  0.36857645  0.63652607  0.51012170    -0.31900
H479        H  0.37452512  0.63293759  0.45264544     0.16500
C480        C  0.36716434  0.73064135  0.62764599    -0.30900
N481        N  0.37721506  0.74866028  0.56417230     0.13300
C482        C  0.37000667  0.73057240  0.50047941    -0.30900
C483        C  0.27563995  0.64315950  0.61382106    -0.31200
N484        N  0.25912220  0.63503761  0.54652186     0.13800
H485        H  0.26591973  0.63929973  0.67106165     0.16500
C486        C  0.27902964  0.64279797  0.48683291    -0.31200
H487        H  0.27218335  0.63903038  0.42634322     0.16500
H488        H  0.37254989  0.73847158  0.44150644     0.16500
H489        H  0.36785024  0.63266739  0.69790315     0.16500
H490        H  0.36684988  0.73864093  0.68547570     0.16500
C491        C  0.15961353  0.83021237  0.99335052     0.30300
C492        C  0.15721818  0.83112957  0.83430058     0.30300
C493        C  0.14209278  0.84480282  0.95806664    -0.05900
C494        C  0.19058849  0.84745508  0.95236382    -0.06600
C495        C  0.14312836  0.79897024  0.95218259    -0.06500
C496        C  0.14144287  0.84570253  0.87742340    -0.05900
C497        C  0.18973502  0.84769322  0.87176989    -0.06600
C498        C  0.14353030  0.79933457  0.87140765    -0.06500
C499        C  0.12698668  0.86138214  0.85689193    -0.31900
N500        N  0.11806166  0.86918385  0.92261304     0.14600
C501        C  0.12687433  0.85900323  0.98437178    -0.31900
H502        H  0.12287051  0.86236973  0.04400959     0.16500
C503        C  0.21997914  0.86148956  0.84797982    -0.30900
N504        N  0.23857371  0.86990096  0.91172030     0.13300
C505        C  0.22087678  0.86171441  0.97569477    -0.30900
C506        C  0.13106234  0.76942693  0.84707501    -0.31200
N507        N  0.12160199  0.75117622  0.91022347     0.13800
H508        H  0.12856982  0.76139157  0.78738201     0.16500
C509        C  0.12771742  0.76896705  0.97398496    -0.31200
H510        H  0.12101679  0.76044325  0.03236605     0.16500
H511        H  0.22939395  0.86504921  0.03491891     0.16500
H512        H  0.12391212  0.86734149  0.79873535     0.16500
H513        H  0.22798061  0.86422814  0.78906504     0.16500
C514        C  0.16217519  0.83240656  0.33483901     0.30300
C515        C  0.16068794  0.83395528  0.49373954     0.30300
C516        C  0.14170764  0.84337346  0.36997654    -0.05900
C517        C  0.14890108  0.80113262  0.37549768    -0.06600
C518        C  0.19332022  0.85132171  0.37682935    -0.06500
C519        C  0.14173554  0.84473812  0.45020688    -0.05900
C520        C  0.14871828  0.80211864  0.45676469    -0.06600
C521        C  0.19256666  0.85196540  0.45702921    -0.06500
C522        C  0.12380775  0.85640359  0.47107874    -0.31900
N523        N  0.11208019  0.86148433  0.40583799     0.14600
C524        C  0.12260109  0.85335533  0.34366374    -0.31900
H525        H  0.11718640  0.85518753  0.28382544     0.16500
C526        C  0.13703786  0.77270435  0.48233625    -0.30900
N527        N  0.12954279  0.75398274  0.41982025     0.13300
C528        C  0.13575133  0.77078470  0.35459851    -0.30900
C529        C  0.22249041  0.86586918  0.48293143    -0.31200
N530        N  0.24167649  0.87502455  0.42123087     0.13800
H531        H  0.22973486  0.86812724  0.54280628     0.16500
C532        C  0.22376886  0.86498722  0.35602231    -0.31200
H533        H  0.23178579  0.86565463  0.29794318     0.16500
H534        H  0.13050622  0.76121067  0.29665103     0.16500
H535        H  0.12077604  0.86212621  0.52930381     0.16500
H536        H  0.13388083  0.76522693  0.54184644     0.16500
O537        O  0.03854606  0.98978190  0.06200386    -0.88000
C538        C  0.04434223  0.54231660  0.88801543     0.88000
Mg539      Mg  0.00574679  0.94182087  0.06308688     1.58100
O540        O  0.01206490  0.55073095  0.05941122    -0.87700
O541        O  0.05401565  0.52836842  0.13543201    -0.75100
C542        C  0.37003150  0.93077815  0.93819203     0.93100
O543        O  0.02436672  0.97342089  0.88162148    -0.74900
O544        O  0.38358042  0.91567393  0.93331367    -0.82400
Mg545      Mg  0.06581585  0.50531512  0.96030170     1.58000
C546        C  0.43310897  0.55567281  0.01218503     0.93000
O547        O  0.11112872  0.54055201  0.02400137    -0.80600
H548        H  0.01514668  0.55952187  0.17309200    -0.06000
C549        C  0.44936129  0.99733528  0.86669977     0.87900
O550        O  0.46806657  0.94691021  0.11955872    -0.75200
O551        O  0.05082968  0.53757745  0.95363763    -0.87900
O552        O  0.46052568  0.56917547  0.98716181    -0.80700
C553        C  0.05482133  0.62147983  0.95748474     0.93100
C554        C  0.12512113  0.56862881  0.04428269     0.93000
Mg555      Mg  0.42764118  0.99118254  0.03256157     1.58000
O556        O  0.38406728  0.95819717  0.96258438    -0.80700
O557        O  0.47305738  0.52656730  0.10747340    -0.74900
O558        O  0.07019854  0.60983369  0.98306826    -0.80700
O559        O  0.08088350  0.97367790  0.96184379    -0.82400
O560        O  0.42280675  0.88778065  0.00826138    -0.80800
C561        C  0.50052479  0.54797524  0.09719148     0.87400
O562        O  0.44186103  0.95847369  0.03987218    -0.87900
O563        O  0.46078947  0.51010729  0.92643584    -0.88000
O564        O  0.44282278  0.97005602  0.85693596    -0.75100
Mg565      Mg  0.06013131  0.56657671  0.05329301     1.58000
O566        O  0.02586779  0.60549632  0.94892669    -0.82400
H567        H  0.04612543  0.99011602  0.17592566    -0.06200
O568        O  0.48293003  0.94623303  0.93963502    -0.87700
H569        H  0.48276025  0.93857344  0.82596764    -0.06000
H570        H  0.43390679  0.95364832  0.15370842    -0.06200
C571        C  0.99702237  0.95192806  0.89306181     0.87400
C572        C  0.04736358  0.50091041  0.12865555     0.88000
C573        C  0.44701497  0.95272740  0.10589318     0.88000
H574        H  0.45533582  0.50996408  0.81165415    -0.06100
O575        O  0.02275542  0.54750177  0.87645155    -0.75200
Mg576      Mg  0.43460424  0.93105556  0.93808357     1.58000
H577        H  0.05669300  0.54100760  0.83889861    -0.06200
C578        C  0.06640368  0.94507497  0.97271744     0.93000
O579        O  0.46561710  0.88951240  0.04495563    -0.82400
C580        C  0.43668702  0.87493137  0.03612856     0.93100
O581        O  0.11076780  0.58279379  0.04944241    -0.82400
Mg582      Mg  0.49346806  0.55768956  0.92561758     1.58200
O583        O  0.03904503  0.93111469  0.99862940    -0.80700
O584        O  0.41801782  0.52706671  0.02180918    -0.82400
O585        O  0.48839838  0.54229499  0.46041975    -0.88000
C586        C  0.05148761  0.54657206  0.61056286     0.88000
Mg587      Mg  0.44046513  0.50817368  0.46512494     1.58100
O588        O  0.05055529  0.51119319  0.43446292    -0.87700
O589        O  0.02411994  0.55179177  0.37039980    -0.75100
C590        C  0.43151080  0.87814435  0.53760940     0.93100
O591        O  0.47767806  0.52815593  0.64225190    -0.74900
O592        O  0.41683131  0.89163700  0.55081179    -0.82400
Mg593      Mg  0.01107952  0.56773274  0.55519348     1.58000
C594        C  0.05331831  0.93116199  0.42984094     0.93000
O595        O  0.04271373  0.61095253  0.48422637    -0.80600
H596        H  0.05300678  0.51124067  0.31884432    -0.06000
C597        C  0.50152905  0.95664549  0.61658609     0.87900
O598        O  0.44359553  0.97710267  0.38003041    -0.75200
O599        O  0.04344923  0.55253373  0.54843976    -0.87900
O600        O  0.06961333  0.95928838  0.44876091    -0.80700
C601        C  0.12730990  0.55775679  0.51428784     0.93100
C602        C  0.06922364  0.62420978  0.45362253     0.93000
Mg603      Mg  0.49079695  0.93683234  0.44738463     1.58000
O604        O  0.45897282  0.89234748  0.51299455    -0.80700
O605        O  0.02076962  0.97186324  0.35129140    -0.74900
O606        O  0.11287399  0.57114568  0.49569033    -0.80700
O607        O  0.47255112  0.58208712  0.57018907    -0.82400
O608        O  0.38730080  0.93092702  0.49601561    -0.80800
C609        C  0.04238898  0.99941201  0.35869071     0.87400
O610        O  0.45781136  0.95098682  0.45083677    -0.87900
O611        O  0.01335224  0.96034591  0.53357206    -0.88000
O612        O  0.47412913  0.94968302  0.63009594    -0.75100
Mg613      Mg  0.06655854  0.55938023  0.43919992     1.58000
O614        O  0.11334355  0.52896665  0.52272869    -0.82400
H615        H  0.48523461  0.54878493  0.34731027    -0.06200
O616        O  0.44762653  0.98954727  0.56379517    -0.87700
H617        H  0.44262210  0.98751824  0.67870784    -0.06000
H618        H  0.44974712  0.94378139  0.33685484    -0.06200
C619        C  0.45660320  0.50068641  0.63063384     0.87400
C620        C  0.99730245  0.54570824  0.38778531     0.88000
C621        C  0.45006748  0.95637921  0.38756916     0.88000
H622        H  0.01848585  0.95465591  0.64615997    -0.06100
O623        O  0.05778010  0.52562645  0.61595456    -0.75200
Mg624      Mg  0.43262560  0.94206567  0.55680663     1.58400
H625        H  0.05238281  0.55897605  0.66221990    -0.06200
C626        C  0.44346041  0.56647629  0.56419236     0.93000
O627        O  0.38674661  0.97289125  0.46643736    -0.82400
C628        C  0.37298699  0.94412015  0.47460487     0.93100
O629        O  0.08338689  0.61015220  0.44072084    -0.82400
Mg630      Mg  0.06163945  0.99332098  0.52128191     1.58200
O631        O  0.42975407  0.53922809  0.53813738    -0.80700
O632        O  0.02419146  0.91718071  0.42804351    -0.82400
C633        C  0.08464215  0.70316604  0.39944290    -0.05400
C634        C  0.11542294  0.72142475  0.42238029     0.00500
C635        C  0.13198827  0.70761400  0.44688829    -0.08100
C636        C  0.11625279  0.67572817  0.45470420    -0.05500
C637        C  0.08475297  0.65737627  0.43678027     0.00500
C638        C  0.06900276  0.67120772  0.40507824    -0.08000
C639        C  0.03626339  0.65243273  0.37460405     0.62400
H640        H  0.07285064  0.71434803  0.37822307     0.13100
H641        H  0.12837698  0.66495745  0.47653114     0.13100
C642        C  0.16631783  0.72660229  0.46200423     0.62600
F643        F  0.02764335  0.67000880  0.33323121    -0.22500
F644        F  0.01622399  0.63944165  0.43541188    -0.19900
F645        F  0.03359751  0.62977435  0.32556444    -0.19600
F646        F  0.17251157  0.74610868  0.52399768    -0.19600
F647        F  0.18068337  0.74347915  0.39684420    -0.19900
F648        F  0.17870136  0.70868256  0.47878916    -0.22600
C649        C  0.28795729  0.88388953  0.49024765    -0.05400
C650        C  0.27495268  0.89114913  0.42775275     0.00500
C651        C  0.29469925  0.91660805  0.38092144    -0.08100
C652        C  0.32660190  0.93260390  0.39681974    -0.05500
C653        C  0.33924634  0.92538098  0.46000519     0.00500
C654        C  0.31931578  0.90145355  0.50983879    -0.08000
C655        C  0.33028566  0.89616776  0.58735847     0.62400
H656        H  0.27292415  0.86472425  0.52604021     0.13100
H657        H  0.34203811  0.95129856  0.36014514     0.13100
C658        C  0.28277450  0.92802373  0.31626216     0.62600
F659        F  0.30604390  0.87601495  0.63301947    -0.22500
F660        F  0.34639707  0.92337986  0.62783253    -0.19900
F661        F  0.34898171  0.88436013  0.57627966    -0.19600
F662        F  0.25756301  0.92921321  0.34068335    -0.19600
F663        F  0.27498432  0.90913755  0.25221681    -0.19900
F664        F  0.30473187  0.95705966  0.29346167    -0.22600
C665        C  0.10638063  0.90367173  0.36093061    -0.05400
C666        C  0.09499858  0.87678875  0.40379066     0.00500
C667        C  0.06818698  0.86644210  0.44805182    -0.08100
C668        C  0.05551462  0.88504187  0.45458245    -0.05500
C669        C  0.06800771  0.91297452  0.41591811     0.00500
C670        C  0.09303634  0.92189171  0.36547751    -0.08000
C671        C  0.10527034  0.95010443  0.31606520     0.62400
H672        H  0.12653510  0.91081454  0.32605964     0.13100
H673        H  0.03589618  0.87799348  0.49160640     0.13100
C674        C  0.05258793  0.83576997  0.48778637     0.62600
F675        F  0.12627892  0.95191713  0.26252127    -0.22500
F676        F  0.11964557  0.97567270  0.36282709    -0.19900
F677        F  0.08138425  0.94970651  0.27585382    -0.19600
F678        F  0.06620392  0.83827295  0.55928006    -0.19600
F679        F  0.05454580  0.81442378  0.44295433    -0.19900
F680        F  0.02176894  0.82519949  0.49902528    -0.22600
C681        C  0.07439853  0.70404930  0.93821928    -0.05400
C682        C  0.10450912  0.71840677  0.91173969     0.00500
C683        C  0.11835054  0.70091587  0.89810804    -0.08100
C684        C  0.10122584  0.66924695  0.91186199    -0.05500
C685        C  0.07094615  0.65474560  0.93945512     0.00500
C686        C  0.05740092  0.67269711  0.95347631    -0.08000
C687        C  0.02566960  0.65948890  0.98771218     0.62400
H688        H  0.06468636  0.71817958  0.94907113     0.13100
H689        H  0.11154443  0.65559640  0.90199481     0.13100
C690        C  0.15133712  0.71587641  0.87181849     0.62600
F691        F  0.01926676  0.68187994  0.00692117    -0.22500
F692        F  0.02348172  0.64374079  0.05470545    -0.19900
F693        F  0.00389875  0.64019089  0.93415058    -0.19600
F694        F  0.17037677  0.73822293  0.92445216    -0.19600
F695        F  0.15418889  0.72882850  0.79989879    -0.19900
F696        F  0.16102198  0.69516646  0.86585340    -0.22600
C697        C  0.28918487  0.91483554  0.88988890    -0.05400
C698        C  0.27148393  0.88431801  0.91170927     0.00500
C699        C  0.28620613  0.86834548  0.93327577    -0.08100
C700        C  0.31843838  0.88410147  0.93763744    -0.05500
C701        C  0.33641050  0.91529079  0.92103236     0.00500
C702        C  0.32155283  0.93073091  0.89350898    -0.08000
C703        C  0.33939957  0.96353992  0.86666762     0.62400
H704        H  0.27726429  0.92629899  0.87187636     0.13100
H705        H  0.32975378  0.87230121  0.95779825     0.13100
C706        C  0.26787997  0.83490999  0.95341680     0.62600
F707        F  0.32081622  0.97138932  0.82634383    -0.22500
F708        F  0.36270585  0.96777828  0.81783296    -0.19900
F709        F  0.35176268  0.98289021  0.92980036    -0.19600
F710        F  0.24529017  0.81902689  0.89788753    -0.19600
F711        F  0.25449159  0.83153843  0.02479825    -0.19900
F712        F  0.28624387  0.82226435  0.95707808    -0.22600
C713        C  0.12469367  0.91899642  0.95068995    -0.05400
C714        C  0.10537206  0.88861152  0.92805966     0.00500
C715        C  0.07371418  0.87714980  0.91757153    -0.08100
C716        C  0.06215910  0.89651686  0.93125510    -0.05500
C717        C  0.08129900  0.92703538  0.95502085     0.00500
C718        C  0.11335564  0.93858812  0.96469977    -0.08000
C719        C  0.13553598  0.97075381  0.99353700     0.62400
H720        H  0.14876234  0.92691203  0.95879345     0.13100
H721        H  0.03784935  0.88778742  0.92381683     0.13100
C722        C  0.05233227  0.84434168  0.89345006     0.62600
F723        F  0.16477805  0.97575728  0.00518822    -0.22500
F724        F  0.12557786  0.97565730  0.06344937    -0.19900
F725        F  0.13760784  0.99168090  0.93980034    -0.19600
F726        F  0.05401444  0.82527434  0.94722980    -0.19600
F727        F  0.06080524  0.83918862  0.82174060    -0.19900
F728        F  0.02213103  0.83719772  0.88818784    -0.22600
C729        C  0.17746604  0.85906802  0.70876289    -0.05400
C730        C  0.15497531  0.83262431  0.74591044     0.00500
C731        C  0.12908890  0.81186928  0.69956220    -0.08100
C732        C  0.13267350  0.81245874  0.61876271    -0.05500
C733        C  0.15858729  0.83598987  0.58195728     0.00500
C734        C  0.17773008  0.86238959  0.62798689    -0.08000
C735        C  0.19514631  0.89506190  0.59917737     0.62400
H736        H  0.19325876  0.87864655  0.74350326     0.13100
H737        H  0.11376658  0.79557831  0.58358068     0.13100
C738        C  0.09644778  0.79132412  0.72793978     0.62600
F739        F  0.18632222  0.91211239  0.64198415    -0.22500
F740        F  0.18934094  0.89799990  0.52250187    -0.19900
F741        F  0.22634097  0.90749587  0.61024503    -0.19600
F742        F  0.09270355  0.79448680  0.80569248    -0.19600
F743        F  0.08695513  0.76126647  0.71227639    -0.19900
F744        F  0.07720553  0.79842896  0.68809911    -0.22600
C745        C  0.16754139  0.85694593  0.12111004    -0.05400
C746        C  0.16358738  0.83110913  0.08185977     0.00500
C747        C  0.16995489  0.81136540  0.12592942    -0.08100
C748        C  0.16825413  0.81207905  0.20708678    -0.05500
C749        C  0.16514034  0.83433861  0.24646977     0.00500
C750        C  0.17017788  0.85999191  0.20209060    -0.08000
C751        C  0.18113845  0.89200216  0.23254737     0.62400
H752        H  0.17096780  0.87628795  0.08773479     0.13100
H753        H  0.17279981  0.79692246  0.24010083     0.13100
C754        C  0.18240962  0.79198555  0.09486413     0.62600
F755        F  0.20893975  0.91192232  0.19868484    -0.22500
F756        F  0.18580084  0.89570738  0.31147579    -0.19900
F757        F  0.16025243  0.90045290  0.21130307    -0.19600
F758        F  0.18980853  0.79632810  0.01751959    -0.19600
F759        F  0.16143878  0.76154696  0.10728197    -0.19900
F760        F  0.20906954  0.79936113  0.13507824    -0.22600
C761        C  0.41859517  0.62291133  0.62147876    -0.05400
C762        C  0.39017904  0.60979983  0.58301273     0.00500
C763        C  0.37707004  0.58028847  0.55114851    -0.08100
C764        C  0.39463360  0.56628257  0.55029665    -0.05500
C765        C  0.42471650  0.58067694  0.58136451     0.00500
C766        C  0.43614634  0.60875219  0.62229607    -0.08000
C767        C  0.46645317  0.62400478  0.66683419     0.62400
H768        H  0.42741567  0.64502574  0.64834605     0.13100
H769        H  0.38524755  0.54445451  0.52142413     0.13100
C770        C  0.34489119  0.56388605  0.51658894     0.62600
F771        F  0.46957235  0.64732355  0.71413168    -0.22500
F772        F  0.49065951  0.63633015  0.61578339    -0.19900
F773        F  0.46810836  0.60302345  0.71375733    -0.19600
F774        F  0.34525104  0.57530871  0.44389711    -0.19600
F775        F  0.32518631  0.56772455  0.56358860    -0.19900
F776        F  0.33343166  0.53295911  0.50925229    -0.22600
C777        C  0.37547197  0.79277909  0.51877586    -0.05400
C778        C  0.39037877  0.78114365  0.56266475     0.00500
C779        C  0.41932201  0.80147996  0.59726810    -0.08100
C780        C  0.43133088  0.83306728  0.59103237    -0.05500
C781        C  0.41611202  0.84471490  0.54793543     0.00500
C782        C  0.38831214  0.82423188  0.50850737    -0.08000
C783        C  0.37354345  0.83532037  0.45082348     0.62400
H784        H  0.35402719  0.77673148  0.49034600     0.13100
H785        H  0.45318159  0.84898447  0.61793552     0.13100
C786        C  0.43843130  0.78992226  0.63520607     0.62600
F787        F  0.34861335  0.81146339  0.41289112    -0.22500
F788        F  0.39472844  0.85311782  0.39551634    -0.19900
F789        F  0.36340391  0.85220515  0.48842302    -0.19600
F790        F  0.44203390  0.77129141  0.58369171    -0.19600
F791        F  0.42422397  0.77370224  0.70110279    -0.19900
F792        F  0.46736059  0.81351880  0.65644678    -0.22600
C793        C  0.17405638  0.60536775  0.56059419    -0.05400
C794        C  0.16143458  0.57668346  0.52430636     0.00500
C795        C  0.18166576  0.56804208  0.49311804    -0.08100
C796        C  0.21360833  0.58801631  0.50138674    -0.05500
C797        C  0.22610031  0.61621694  0.53943761     0.00500
C798        C  0.20607272  0.62537212  0.56848232    -0.08000
C799        C  0.21820917  0.65615916  0.60698810     0.62400
H800        H  0.15854749  0.61200027  0.58351059     0.13100
H801        H  0.22936624  0.58169890  0.47865943     0.13100
C802        C  0.16976954  0.53844987  0.44853500     0.62600
F803        F  0.19614196  0.66434214  0.60785945    -0.22500
F804        F  0.24327350  0.67846398  0.56754914    -0.19900
F805        F  0.22673899  0.65509798  0.68265437    -0.19600
F806        F  0.15063064  0.53690569  0.38886106    -0.19600
F807        F  0.15385386  0.51409755  0.49770826    -0.19900
F808        F  0.19328540  0.53603208  0.41633436    -0.22600
C809        C  0.38178056  0.58444491  0.08920196    -0.05400
C810        C  0.39112722  0.61015795  0.04271312     0.00500
C811        C  0.41562052  0.61890796  0.99027344    -0.08100
C812        C  0.42850269  0.60046574  0.98298817    -0.05500
C813        C  0.41834579  0.57396126  0.02683994     0.00500
C814        C  0.39493890  0.56608358  0.08242871    -0.08000
C815        C  0.38389598  0.53867920  0.13489853     0.62400
H816        H  0.36341986  0.57845018  0.12969571     0.13100
H817        H  0.44644331  0.60646004  0.94113819     0.13100
C818        C  0.42924384  0.64819098  0.94404436     0.62600
F819        F  0.36480521  0.53816676  0.19235634    -0.22500
F820        F  0.40870509  0.53934403  0.17082090    -0.19900
F821        F  0.36759624  0.51219291  0.09171578    -0.19600
F822        F  0.43362793  0.67196073  0.99136547    -0.19600
F823        F  0.41028519  0.64496599  0.88241047    -0.19900
F824        F  0.45732800  0.65589017  0.91340416    -0.22600
C825        C  0.38818686  0.82471608  0.02711647    -0.05400
C826        C  0.41858272  0.84182194  0.05560514     0.00500
C827        C  0.43050325  0.82663376  0.10022993    -0.08100
C828        C  0.41241241  0.79482538  0.10814380    -0.05500
C829        C  0.38288355  0.77797032  0.07592269     0.00500
C830        C  0.36982207  0.79325920  0.03893747    -0.08000
C831        C  0.33652276  0.77751153  0.01278981     0.62400
H832        H  0.37837981  0.83594781  0.99520746     0.13100
H833        H  0.42162829  0.78246182  0.13700436     0.13100
C834        C  0.46190123  0.84323148  0.13987387     0.62600
F835        F  0.32355865  0.79383472  0.03935616    -0.22500
F836        F  0.31925498  0.74831816  0.04126629    -0.19900
F837        F  0.33492338  0.77636048  0.93271981    -0.19600
F838        F  0.46458477  0.86679815  0.18522543    -0.19600
F839        F  0.48482241  0.85449449  0.08511054    -0.19900
F840        F  0.46638949  0.82422348  0.18795001    -0.22600
C841        C  0.17471554  0.56990297  0.03816710    -0.05400
C842        C  0.15925477  0.58519827  0.05828032     0.00500
C843        C  0.17705553  0.61574868  0.08731895    -0.08100
C844        C  0.20931863  0.62974118  0.09138462    -0.05500
C845        C  0.22425831  0.61476801  0.06673416     0.00500
C846        C  0.20687245  0.58424341  0.04142270    -0.08000
C847        C  0.22245985  0.56698876  0.01773246     0.62400
H848        H  0.16152695  0.54670114  0.01703929     0.13100
H849        H  0.22347947  0.65302527  0.11134779     0.13100
C850        C  0.16284310  0.63420214  0.11265793     0.62600
F851        F  0.20147739  0.53659617  0.00402699    -0.22500
F852        F  0.24225508  0.56890134  0.07603188    -0.19900
F853        F  0.23874532  0.57905174  0.95046315    -0.19600
F854        F  0.14036052  0.61826991  0.16697562    -0.19600
F855        F  0.15035993  0.64051491  0.04898111    -0.19900
F856        F  0.18430482  0.66169796  0.14636690    -0.22600
C857        C  0.31486546  0.64361521  0.85539662    -0.05400
C858        C  0.33806753  0.66888060  0.89633362     0.00500
C859        C  0.36445342  0.68976763  0.85308613    -0.08100
C860        C  0.36164870  0.68977643  0.77213150    -0.05500
C861        C  0.33598391  0.66702111  0.73110211     0.00500
C862        C  0.31491442  0.64088535  0.77434949    -0.08000
C863        C  0.29458695  0.60858820  0.74302531     0.62400
H864        H  0.29815352  0.62403067  0.88754329     0.13100
H865        H  0.38150428  0.70622898  0.74026365     0.13100
C866        C  0.39698946  0.71065953  0.88449294     0.62600
F867        F  0.26413452  0.59894127  0.75628696    -0.22500
F868        F  0.30174680  0.58952490  0.78258433    -0.19900
F869        F  0.29809377  0.60499334  0.66546168    -0.19600
F870        F  0.40109085  0.70664851  0.96155459    -0.19600
F871        F  0.40543849  0.74066037  0.87294185    -0.19900
F872        F  0.41701679  0.70514134  0.84377480    -0.22600
C873        C  0.36657972  0.68680371  0.26987025    -0.05400
C874        C  0.34025592  0.66353564  0.23192148     0.00500
C875        C  0.32040734  0.63756271  0.27704197    -0.08100
C876        C  0.32159816  0.64100480  0.35791754    -0.05500
C877        C  0.34430799  0.66752673  0.39585036     0.00500
C878        C  0.37024731  0.68781279  0.35080540    -0.08000
C879        C  0.40303011  0.70785682  0.38071723     0.62400
H880        H  0.38569443  0.70321945  0.23559347     0.13100
H881        H  0.30553410  0.62176677  0.39227746     0.13100
C882        C  0.29984490  0.60519184  0.24685781     0.62600
F883        F  0.42186942  0.70045513  0.34087774    -0.22500
F884        F  0.40673198  0.70418153  0.45837039    -0.19900
F885        F  0.41303079  0.73809022  0.36668036    -0.19600
F886        F  0.30379074  0.60149755  0.16955878    -0.19600
F887        F  0.26942806  0.59589318  0.25926260    -0.19900
F888        F  0.30648621  0.58600611  0.28763112    -0.22600
C889        C  0.83169710  0.16292574  0.16296750     0.30300
C890        C  0.83290838  0.16474221  0.00384740     0.30300
C891        C  0.84795045  0.14852642  0.12302456    -0.05900
C892        C  0.79998088  0.14764120  0.12181616    -0.06600
C893        C  0.84695892  0.19504383  0.12635136    -0.06500
C894        C  0.84821456  0.14916052  0.04300556    -0.05900
C895        C  0.80053234  0.14815568  0.04055716    -0.06600
C896        C  0.84697042  0.19575167  0.04545626    -0.06500
C897        C  0.86233712  0.13386064  0.01840141    -0.31900
N898        N  0.87102256  0.12441494  0.08179848     0.14600
C899        C  0.86211623  0.13294947  0.14616983    -0.31900
H900        H  0.86550665  0.12799008  0.20505708     0.16500
C901        C  0.77042609  0.13536123  0.01548059    -0.30900
N902        N  0.75193051  0.12633416  0.07817236     0.13300
C903        C  0.76966814  0.13463123  0.14332960    -0.30900
C904        C  0.85912479  0.22563016  0.02389958    -0.31200
N905        N  0.86721707  0.24314071  0.08880251     0.13800
H906        H  0.86225792  0.23418648  0.96536434     0.16500
C907        C  0.85964378  0.22485960  0.15160092    -0.31200
H908        H  0.86318095  0.23290687  0.21098065     0.16500
H909        H  0.76112195  0.13184434  0.20159978     0.16500
H910        H  0.86611185  0.12989341  0.95886446     0.16500
H911        H  0.76234201  0.13327650  0.95624651     0.16500
C912        C  0.83819131  0.16612219  0.50368063     0.30300
C913        C  0.83671338  0.16452766  0.66251667     0.30300
C914        C  0.85118895  0.14835354  0.54281010    -0.05900
C915        C  0.85512441  0.19735585  0.54500972    -0.06600
C916        C  0.80606880  0.15233155  0.54026877    -0.06500
C917        C  0.85093590  0.14786367  0.62294344    -0.05900
C918        C  0.85490420  0.19675663  0.62607696    -0.06600
C919        C  0.80543298  0.15207204  0.62098925    -0.06500
C920        C  0.86538022  0.13247770  0.64605264    -0.31900
N921        N  0.87369218  0.12324515  0.58165296     0.14600
C922        C  0.86537046  0.13307918  0.51833142    -0.31900
H923        H  0.87031536  0.13033264  0.45900456     0.16500
C924        C  0.86822018  0.22677560  0.65086674    -0.30900
N925        N  0.87695119  0.24505052  0.58779044     0.13300
C926        C  0.86789153  0.22729566  0.52323502    -0.30900
C927        C  0.77556287  0.14200628  0.64214849    -0.31200
N928        N  0.75794270  0.13513686  0.57703213     0.13800
H929        H  0.76718787  0.14013090  0.70034389     0.16500
C930        C  0.77633973  0.14160198  0.51463013    -0.31200
H931        H  0.76843011  0.13872015  0.45499190     0.16500
H932        H  0.86934889  0.23559821  0.46498748     0.16500
H933        H  0.86973478  0.12849329  0.70506230     0.16500
H934        H  0.87032582  0.23483708  0.70990753     0.16500
C935        C  0.66423106  0.33120616  0.01164490     0.30300
C936        C  0.66218831  0.33284017  0.85248700     0.30300
C937        C  0.64656258  0.34567919  0.97663742    -0.05900
C938        C  0.69525330  0.34882705  0.97110189    -0.06600
C939        C  0.64833036  0.30012582  0.96931806    -0.06500
C940        C  0.64607842  0.34678692  0.89615124    -0.05900
C941        C  0.69466664  0.34951524  0.89036725    -0.06600
C942        C  0.64892364  0.30103394  0.88848823    -0.06500
C943        C  0.63150751  0.36222633  0.87536364    -0.31900
N944        N  0.62240967  0.36989647  0.94080892     0.14600
C945        C  0.63135810  0.35994803  0.00288144    -0.31900
H946        H  0.62758449  0.36355852  0.06257171     0.16500
C947        C  0.72495302  0.36257921  0.86727683    -0.30900
N948        N  0.74320335  0.37012991  0.93160533     0.13300
C949        C  0.72531670  0.36213992  0.99508174    -0.30900
C950        C  0.63633460  0.27143164  0.86229343    -0.31200
N951        N  0.62670443  0.25269751  0.92434545     0.13800
H952        H  0.63341833  0.26391447  0.80218803     0.16500
C953        C  0.63264681  0.26987093  0.98944803    -0.31200
H954        H  0.62521935  0.26088202  0.04627783     0.16500
H955        H  0.73353625  0.36479411  0.05442557     0.16500
H956        H  0.62842227  0.36810251  0.81725837     0.16500
H957        H  0.73311090  0.36519050  0.80852601     0.16500
C958        C  0.66466167  0.33534656  0.35303504     0.30300
C959        C  0.66199215  0.33737934  0.51196275     0.30300
C960        C  0.64706629  0.34988068  0.38611127    -0.05900
C961        C  0.64768962  0.30399098  0.39377750    -0.06600
C962        C  0.69553827  0.35138300  0.39690430    -0.06500
C963        C  0.64646433  0.35152017  0.46649933    -0.05900
C964        C  0.64683394  0.30513577  0.47493362    -0.06600
C965        C  0.69417848  0.35215268  0.47700251    -0.06500
C966        C  0.63065215  0.36581968  0.48469951    -0.31900
N967        N  0.62129622  0.37246316  0.41768043     0.14600
C968        C  0.63055012  0.36233454  0.35720939    -0.31900
H969        H  0.62555059  0.36395647  0.29696842     0.16500
C970        C  0.63272978  0.27550204  0.50061506    -0.30900
N971        N  0.62450767  0.25661149  0.43835627     0.13300
C972        C  0.63265190  0.27350851  0.37297848    -0.30900
C973        C  0.72384319  0.36571869  0.50446985    -0.31200
N974        N  0.74338824  0.37472561  0.44369593     0.13800
H975        H  0.73077108  0.36867605  0.56467255     0.16500
C976        C  0.72607614  0.36483499  0.37758045    -0.31200
H977        H  0.73470923  0.36650999  0.31975343     0.16500
H978        H  0.62819210  0.26397785  0.31504485     0.16500
H979        H  0.62629592  0.37109568  0.54228893     0.16500
H980        H  0.62904215  0.26799031  0.56007935     0.16500
O981        O  0.54091525  0.49122806  0.04843314    -0.88000
C982        C  0.54319656  0.04347601  0.87488767     0.88000
Mg983      Mg  0.50788457  0.44296982  0.04853305     1.58100
O984        O  0.50746158  0.05001244  0.04153726    -0.87700
O985        O  0.54735070  0.02639893  0.12452113    -0.75100
C986        C  0.87388938  0.42892174  0.97274367     0.93100
O987        O  0.52949895  0.47436444  0.86805547    -0.74900
O988        O  0.88708751  0.41352325  0.96735638    -0.82400
Mg989      Mg  0.56305514  0.00539358  0.94947813     1.58000
C990        C  0.92732963  0.05217446  0.04566795     0.93000
O991        O  0.60725398  0.03936712  0.01843697    -0.80600
H992        H  0.50807834  0.05771880  0.15529764    -0.06000
C993        C  0.95109231  0.49454617  0.89411518     0.87900
O994        O  0.97506160  0.44686048  0.14497287    -0.75200
O995        O  0.54874486  0.03814324  0.94099251    -0.87900
O996        O  0.95470472  0.06604899  0.01999458    -0.80700
C997        C  0.55390708  0.12234651  0.94941293     0.93100
C998        C  0.62063042  0.06710258  0.04114751     0.93000
Mg999      Mg  0.93261518  0.49031467  0.06293619     1.58000
O1000       O  0.88822583  0.45624162  0.99780149    -0.80700
O1001       O  0.96958773  0.02380584  0.13353763    -0.74900
O1002       O  0.56793181  0.10950584  0.97618191    -0.80700
O1003       O  0.58476721  0.47475697  0.95671763    -0.82400
O1004       O  0.92768063  0.38652218  0.03732774    -0.80800
C1005       C  0.99700591  0.04528696  0.12255693     0.87400
O1006       O  0.94720622  0.45768607  0.06903884    -0.87900
O1007       O  0.95556907  0.00814626  0.95263439    -0.88000
O1008       O  0.94458103  0.46724972  0.88566284    -0.75100
Mg1009     Mg  0.55552745  0.06536164  0.04342196     1.58000
O1010       O  0.52514700  0.10733886  0.93627852    -0.82400
H1011       H  0.54672504  0.49216057  0.16347676    -0.06200
O1012       O  0.98618894  0.44469009  0.96320817    -0.87700
H1013       H  0.98341147  0.43582826  0.84968275    -0.06000
H1014       H  0.94147524  0.45368881  0.18382994    -0.06200
C1015       C  0.50187509  0.45299081  0.87694468     0.87400
C1016       C  0.54090700  0.99916672  0.11499833     0.88000
C1017       C  0.95369537  0.45249587  0.13426257     0.88000
H1018       H  0.94890892  0.00823268  0.83822890    -0.06100
O1019       O  0.52209849  0.04926717  0.86142015    -0.75200
Mg1020     Mg  0.93808357  0.42928587  0.96762347     1.58000
H1021       H  0.55601464  0.04220899  0.82679631    -0.06200
C1022       C  0.56996317  0.44613819  0.96734325     0.93000
O1023       O  0.97097533  0.38843881  0.06985930    -0.82400
C1024       C  0.94188191  0.37356657  0.06212372     0.93100
O1025       O  0.60591238  0.08085441  0.04783912    -0.82400
Mg1026     Mg  0.98798568  0.05610566  0.95359839     1.58200
O1027       O  0.54207381  0.43227038  0.98941280    -0.80700
O1028       O  0.91268561  0.02349052  0.05419669    -0.82400
O1029       O  0.98760852  0.03948288  0.44159441    -0.88000
C1030       C  0.54861257  0.04924946  0.62023030     0.88000
Mg1031     Mg  0.93962941  0.00620331  0.45276536     1.58100
O1032       O  0.55140359  0.01583495  0.44421187    -0.87700
O1033       O  0.52452037  0.05562696  0.37838677    -0.75100
C1034       C  0.93182302  0.37478296  0.54956691     0.93100
O1035       O  0.97991666  0.02734769  0.62460833    -0.74900
O1036       O  0.91829651  0.38940068  0.56345541    -0.82400
Mg1037     Mg  0.50745244  0.06880324  0.56162876     1.58000
C1038       C  0.55850678  0.43787954  0.44870213     0.93000
O1039       O  0.53958106  0.11284394  0.49470740    -0.80600
H1040       H  0.55601581  0.01753924  0.32903526    -0.06000
C1041       C  0.00442875  0.45372515  0.61326602     0.87900
O1042       O  0.94304802  0.47350871  0.38522242    -0.75200
O1043       O  0.54077579  0.05472099  0.55720313    -0.87900
O1044       O  0.57291504  0.46497370  0.47620435    -0.80700
C1045       C  0.62625497  0.06168336  0.53542207     0.93100
C1046       C  0.56649445  0.12691639  0.46644140     0.93000
Mg1047     Mg  0.98990122  0.43174083  0.44666521     1.58000
O1048       O  0.95819126  0.38799665  0.51774020    -0.80700
O1049       O  0.52581686  0.47793973  0.37265363    -0.74900
O1050       O  0.61198840  0.07491050  0.51300178    -0.80700
O1051       O  0.97483510  0.08162553  0.55226216    -0.82400
O1052       O  0.88879820  0.42979523  0.50822640    -0.80800
C1053       C  0.54702844  0.50541040  0.38363374     0.87400
O1054       O  0.95751128  0.44683086  0.45322973    -0.87900
O1055       O  0.51521652  0.46355593  0.55412587    -0.88000
O1056       O  0.97767314  0.44775697  0.63083922    -0.75100
Mg1057     Mg  0.56622504  0.06339661  0.45123496     1.58000
O1058       O  0.61228957  0.03279678  0.54108323    -0.82400
H1059       H  0.98242915  0.04538208  0.32917564    -0.06200
O1060       O  0.95148234  0.48850621  0.56690575    -0.87700
H1061       H  0.94843128  0.48818921  0.68239631    -0.06000
H1062       H  0.94739239  0.43933816  0.34005417    -0.06200
C1063       C  0.95844019  0.99984331  0.61611945     0.87400
C1064       C  0.49720394  0.04896869  0.39205074     0.88000
C1065       C  0.94898514  0.45233142  0.39119234     0.88000
H1066       H  0.51843406  0.45732942  0.66738599    -0.06100
O1067       O  0.55535215  0.02869025  0.62719705    -0.75200
Mg1068     Mg  0.93513008  0.44042837  0.56325281     1.58400
H1069       H  0.54891184  0.06170596  0.67117470    -0.06200
C1070       C  0.94566548  0.06631269  0.54952788     0.93000
O1071       O  0.88907821  0.47233079  0.48043705    -0.82400
C1072       C  0.87479126  0.44368527  0.49015065     0.93100
O1073       O  0.58161950  0.11372631  0.45488428    -0.82400
Mg1074     Mg  0.56323592  0.49768472  0.54848895     1.58200
O1075       O  0.93131160  0.03870858  0.52618665    -0.80700
O1076       O  0.52939689  0.42301189  0.44244648    -0.82400
C1077       C  0.58054524  0.20549456  0.41402772    -0.05400
C1078       C  0.61072557  0.22411818  0.44121433     0.00500
C1079       C  0.62728202  0.21076290  0.46934870    -0.08100
C1080       C  0.61233000  0.17885849  0.47357906    -0.05500
C1081       C  0.58137506  0.16008555  0.45133661     0.00500
C1082       C  0.56541304  0.17352486  0.41856460    -0.08000
C1083       C  0.53282412  0.15437469  0.38722653     0.62400
H1084       H  0.56872327  0.21637900  0.39098562     0.13100
H1085       H  0.62445309  0.16838207  0.49735366     0.13100
C1086       C  0.66065952  0.23026831  0.49446381     0.62600
F1087       F  0.52411014  0.17162468  0.34468755    -0.22500
F1088       F  0.51260021  0.14143119  0.44782475    -0.19900
F1089       F  0.53055961  0.13166776  0.33903783    -0.19600
F1090       F  0.66286094  0.24601266  0.56166179    -0.19600
F1091       F  0.67728037  0.25076732  0.43680135    -0.19900
F1092       F  0.67384826  0.21291004  0.50892935    -0.22600
C1093       C  0.78986568  0.38527251  0.51432853    -0.05400
C1094       C  0.77653445  0.39187101  0.45140057     0.00500
C1095       C  0.79570739  0.41754891  0.40473531    -0.08100
C1096       C  0.82771999  0.43323813  0.41787148    -0.05500
C1097       C  0.84086431  0.42600391  0.47987297     0.00500
C1098       C  0.82128966  0.40317239  0.53249052    -0.08000
C1099       C  0.83276152  0.39974997  0.61122092     0.62400
H1100       H  0.77508424  0.36649272  0.55150427     0.13100
H1101       H  0.84275924  0.45167548  0.38001155     0.13100
C1102       C  0.78305743  0.42978979  0.34407306     0.62600
F1103       F  0.80906096  0.37904456  0.65738338    -0.22500
F1104       F  0.84723149  0.42753034  0.64950313    -0.19900
F1105       F  0.85311345  0.38985111  0.60276226    -0.19600
F1106       F  0.75707240  0.42894917  0.37088510    -0.19600
F1107       F  0.77626086  0.41290488  0.27650523    -0.19900
F1108       F  0.80414879  0.45979625  0.32664876    -0.22600
C1109       C  0.62221832  0.42050840  0.41096539    -0.05400
C1110       C  0.60533819  0.38870987  0.41256309     0.00500
C1111       C  0.57312630  0.37317007  0.41294825    -0.08100
C1112       C  0.55859365  0.39004814  0.42211833    -0.05500
C1113       C  0.57548199  0.42214875  0.42766330     0.00500
C1114       C  0.60774533  0.43766996  0.41559484    -0.08000
C1115       C  0.62687613  0.47188173  0.40521732     0.62400
H1116       H  0.64696055  0.43174401  0.40738160     0.13100
H1117       H  0.53389102  0.37799803  0.42741797     0.13100
C1118       C  0.55463134  0.33883530  0.40446245     0.62600
F1119       F  0.65563835  0.48083649  0.37649963    -0.22500
F1120       F  0.63085645  0.48646326  0.47548202    -0.19900
F1121       F  0.61245416  0.48108593  0.35302261    -0.19600
F1122       F  0.56075450  0.32561701  0.46639361    -0.19600
F1123       F  0.56252519  0.33031357  0.33645054    -0.19900
F1124       F  0.52341208  0.32778722  0.40169017    -0.22600
C1125       C  0.57782998  0.20634897  0.94384731    -0.05400
C1126       C  0.60850526  0.22003034  0.92262716     0.00500
C1127       C  0.62126571  0.20174619  0.90695308    -0.08100
C1128       C  0.60250146  0.16985465  0.91407174    -0.05500
C1129       C  0.57155108  0.15592770  0.93633601     0.00500
C1130       C  0.55899797  0.17467813  0.95146435    -0.08000
C1131       C  0.52620517  0.16193561  0.97770377     0.62400
H1132       H  0.56896613  0.22116014  0.95551613     0.13100
H1133       H  0.61201987  0.15557444  0.90329405     0.13100
C1134       C  0.65477750  0.21605857  0.88580765     0.62600
F1135       F  0.52090410  0.18478104  0.00002198    -0.22500
F1136       F  0.52007541  0.14311732  0.04076605    -0.19900
F1137       F  0.50626264  0.14584630  0.91725973    -0.19600
F1138       F  0.67304863  0.23528404  0.94498718    -0.19600
F1139       F  0.66053220  0.23253407  0.81835516    -0.19900
F1140       F  0.66287458  0.19437916  0.87391078    -0.22600
C1141       C  0.79440849  0.41453732  0.91470580    -0.05400
C1142       C  0.77599604  0.38378443  0.93344812     0.00500
C1143       C  0.78986215  0.36732431  0.95806637    -0.08100
C1144       C  0.82194237  0.38272862  0.96718424    -0.05500
C1145       C  0.84052121  0.41409500  0.95337056     0.00500
C1146       C  0.82657849  0.43022703  0.92441175    -0.08000
C1147       C  0.84518549  0.46368727  0.90322095     0.62400
H1148       H  0.78307141  0.42640661  0.89531556     0.13100
H1149       H  0.83256291  0.37049427  0.98908253     0.13100
C1150       C  0.77078212  0.33390730  0.97814669     0.62600
F1151       F  0.82749373  0.47304308  0.86457019    -0.22500
F1152       F  0.86898020  0.46877494  0.85509494    -0.19900
F1153       F  0.85688713  0.48134471  0.96953478    -0.19600
F1154       F  0.74791306  0.31838762  0.92300846    -0.19600
F1155       F  0.75769943  0.33093528  0.04982446    -0.19900
F1156       F  0.78848180  0.32052836  0.98132060    -0.22600
C1157       C  0.62864861  0.42003269  0.95969684    -0.05400
C1158       C  0.60932977  0.38897253  0.94419503     0.00500
C1159       C  0.57767933  0.37704670  0.93222736    -0.08100
C1160       C  0.56605185  0.39666595  0.93827309    -0.05500
C1161       C  0.58512964  0.42792752  0.95533101     0.00500
C1162       C  0.61732311  0.44000472  0.96476949    -0.08000
C1163       C  0.63986885  0.47350060  0.98125563     0.62400
H1164       H  0.65285679  0.42837932  0.96766562     0.13100
H1165       H  0.54169898  0.38753188  0.92997403     0.13100
C1166       C  0.55639519  0.34350826  0.91486517     0.62600
F1167       F  0.66946677  0.47942418  0.99260584    -0.22500
F1168       F  0.63147715  0.48252080  0.04755783    -0.19900
F1169       F  0.64035532  0.49071077  0.91905174    -0.19600
F1170       F  0.55790295  0.32653116  0.97503113    -0.19600
F1171       F  0.56509254  0.33578425  0.84698467    -0.19900
F1172       F  0.52621070  0.33609659  0.90609323    -0.22600
C1173       C  0.68180658  0.36102854  0.72716007    -0.05400
C1174       C  0.65922133  0.33463743  0.76436132     0.00500
C1175       C  0.63224653  0.31497164  0.71946016    -0.08100
C1176       C  0.63428629  0.31672383  0.63821646    -0.05500
C1177       C  0.66021109  0.33967316  0.60039927     0.00500
C1178       C  0.68111895  0.36517966  0.64689066    -0.08000
C1179       C  0.69998798  0.39795626  0.61957240     0.62400
H1180       H  0.69866387  0.38001778  0.76183178     0.13100
H1181       H  0.61438418  0.30101273  0.60392456     0.13100
C1182       C  0.60005629  0.29373077  0.75006842     0.62600
F1183       F  0.69127638  0.41536671  0.66110720    -0.22500
F1184       F  0.69591471  0.40166689  0.54217944    -0.19900
F1185       F  0.73082752  0.40931000  0.63423998    -0.19600
F1186       F  0.59726438  0.29516932  0.82901124    -0.19600
F1187       F  0.59051111  0.26406409  0.72923550    -0.19900
F1188       F  0.58015098  0.30137846  0.71621440    -0.22600
C1189       C  0.67338751  0.35908706  0.13783750    -0.05400
C1190       C  0.66797992  0.33237911  0.10035408     0.00500
C1191       C  0.67259690  0.31193475  0.14649444    -0.08100
C1192       C  0.67010635  0.31307626  0.22744260    -0.05500
C1193       C  0.66849653  0.33664286  0.26472772     0.00500
C1194       C  0.67589957  0.36265336  0.21870853    -0.08000
C1195       C  0.68912503  0.39527316  0.24745029     0.62400
H1196       H  0.67779607  0.37848082  0.10307937     0.13100
H1197       H  0.67296163  0.29717591  0.26218776     0.13100
C1198       C  0.68489667  0.29209740  0.11808237     0.62600
F1199       F  0.71705972  0.41357537  0.21217636    -0.22500
F1200       F  0.69446885  0.39930560  0.32612674    -0.19900
F1201       F  0.66964599  0.40548749  0.22633455    -0.19600
F1202       F  0.69376201  0.29684581  0.04170970    -0.19600
F1203       F  0.66325423  0.26172408  0.12864689    -0.19900
F1204       F  0.71064258  0.29870309  0.16160875    -0.22600
C1205       C  0.92076094  0.12282817  0.60948323    -0.05400
C1206       C  0.89066006  0.10783227  0.58025202     0.00500
C1207       C  0.87776278  0.07823341  0.54904121    -0.08100
C1208       C  0.89621660  0.06526217  0.54355827    -0.05500
C1209       C  0.92726743  0.08088375  0.56795021     0.00500
C1210       C  0.93949233  0.10997447  0.60429829    -0.08000
C1211       C  0.97183053  0.12762047  0.63814534     0.62400
H1212       H  0.92970826  0.14528198  0.63434943     0.13100
H1213       H  0.88651701  0.04304780  0.51666700     0.13100
C1214       C  0.84477923  0.06060269  0.51992364     0.62600
F1215       F  0.97705478  0.15320071  0.67883398    -0.22500
F1216       F  0.99310577  0.13726153  0.57950227    -0.19900
F1217       F  0.97635896  0.10939989  0.68891994    -0.19600
F1218       F  0.84257683  0.07196043  0.44915749    -0.19600
F1219       F  0.82568841  0.06308106  0.57223157    -0.19900
F1220       F  0.83450531  0.02998277  0.51039560    -0.22600
C1221       C  0.87234628  0.29016900  0.58796078    -0.05400
C1222       C  0.89105734  0.27764075  0.58783076     0.00500
C1223       C  0.92314180  0.29698072  0.58279789    -0.08100
C1224       C  0.93545444  0.32844160  0.57201346    -0.05500
C1225       C  0.91673880  0.34137333  0.56859964     0.00500
C1226       C  0.88448855  0.32173366  0.58007464    -0.08000
C1227       C  0.86261016  0.33347256  0.58451816     0.62400
H1228       H  0.84789938  0.27465373  0.59342943     0.13100
H1229       H  0.96000364  0.34316882  0.56579448     0.13100
C1230       C  0.94406014  0.28412167  0.58929607     0.62600
F1231       F  0.83254762  0.31033838  0.59532265    -0.22500
F1232       F  0.86348511  0.34811408  0.51648810    -0.19900
F1233       F  0.87094372  0.35319139  0.64702391    -0.19600
F1234       F  0.93782945  0.26366328  0.52961382    -0.19600
F1235       F  0.93932519  0.26935944  0.65934069    -0.19900
F1236       F  0.97468608  0.30667691  0.58584028    -0.22600
C1237       C  0.67657943  0.11021075  0.52012968    -0.05400
C1238       C  0.66019201  0.08082649  0.55254097     0.00500
C1239       C  0.67670007  0.07113707  0.60001328    -0.08100
C1240       C  0.70871865  0.09048977  0.60942088    -0.05500
C1241       C  0.72486516  0.11906833  0.57439423     0.00500
C1242       C  0.70844356  0.12969676  0.53151970    -0.08000
C1243       C  0.72339796  0.16136185  0.49731215     0.62400
H1244       H  0.66441171  0.11823440  0.48498747     0.13100
H1245       H  0.72188658  0.08295028  0.64190359     0.13100
C1246       C  0.66119678  0.04065994  0.64090041     0.62600
F1247       F  0.70654858  0.17467379  0.51654588    -0.22500
F1248       F  0.72390656  0.15925090  0.41749700    -0.19900
F1249       F  0.75301835  0.18040403  0.52444341    -0.19600
F1250       F  0.65084324  0.01739015  0.58695188    -0.19600
F1251       F  0.63684956  0.03734546  0.68396425    -0.19900
F1252       F  0.68109043  0.03797587  0.69108877    -0.22600
C1253       C  0.87080382  0.07747332  0.10604906    -0.05400
C1254       C  0.88642221  0.10755498  0.08035598     0.00500
C1255       C  0.91613799  0.12006783  0.04997473    -0.08100
C1256       C  0.92809957  0.10104843  0.03902297    -0.05500
C1257       C  0.91235982  0.07034789  0.06230864     0.00500
C1258       C  0.88341528  0.05863802  0.09951759    -0.08000
C1259       C  0.86585786  0.02695743  0.13399857     0.62400
H1260       H  0.84825067  0.06880970  0.13035423     0.13100
H1261       H  0.95045188  0.11076523  0.01266806     0.13100
C1262       C  0.93657098  0.15347250  0.03073206     0.62600
F1263       F  0.84013574  0.02207236  0.17363759    -0.22500
F1264       F  0.88453572  0.02329427  0.18612419    -0.19900
F1265       F  0.85605138  0.00517323  0.07599388    -0.19600
F1266       F  0.92494608  0.17117212  0.05535003    -0.19600
F1267       F  0.94082168  0.15664751  0.95149742    -0.19900
F1268       F  0.96469521  0.16453878  0.06725626    -0.22600
C1269       C  0.89117558  0.32549992  0.07575426    -0.05400
C1270       C  0.92355486  0.33997494  0.07844307     0.00500
C1271       C  0.93684340  0.32156016  0.09103781    -0.08100
C1272       C  0.91726653  0.28975742  0.09654977    -0.05500
C1273       C  0.88539951  0.27578883  0.08993828     0.00500
C1274       C  0.87196012  0.29370092  0.08106518    -0.08000
C1275       C  0.83736624  0.27885329  0.07674308     0.62400
H1276       H  0.88077374  0.33916804  0.06750978     0.13100
H1277       H  0.92659722  0.27510751  0.10397186     0.13100
C1278       C  0.97129952  0.33463597  0.09707060     0.62600
F1279       F  0.82838217  0.30013372  0.07257503    -0.22500
F1280       F  0.82448338  0.26143540  0.14208478    -0.19900
F1281       F  0.82613585  0.26032835  0.01172685    -0.19600
F1282       F  0.98338595  0.35510162  0.15829104    -0.19600
F1283       F  0.98516730  0.34893024  0.02868337    -0.19900
F1284       F  0.97845261  0.31233726  0.11023743    -0.22600
C1285       C  0.66806459  0.06641166  0.07409052    -0.05400
C1286       C  0.65447577  0.08379172  0.05736797     0.00500
C1287       C  0.67384743  0.11603104  0.05062205    -0.08100
C1288       C  0.70582830  0.12920655  0.05995897    -0.05500
C1289       C  0.71902490  0.11162349  0.07514623     0.00500
C1290       C  0.70004885  0.07977998  0.08235080    -0.08000
C1291       C  0.71377926  0.06004527  0.09660777     0.62400
H1292       H  0.65342462  0.04201833  0.07937762     0.13100
H1293       H  0.72114889  0.15348639  0.05418948     0.13100
C1294       C  0.66147610  0.13669307  0.03094310     0.62600
F1295       F  0.69155629  0.02947094  0.09974477    -0.22500
F1296       F  0.72949722  0.06807279  0.16632006    -0.19900
F1297       F  0.73379786  0.06403826  0.03779101    -0.19600
F1298       F  0.64287034  0.13599967  0.08990873    -0.19600
F1299       F  0.64498469  0.12732221  0.96196200    -0.19900
F1300       F  0.68473237  0.16665497  0.02211621    -0.22600
C1301       C  0.81299831  0.13930678  0.87409083    -0.05400
C1302       C  0.83586000  0.16471793  0.91549023     0.00500
C1303       C  0.86319260  0.18475308  0.87400212    -0.08100
C1304       C  0.86173172  0.18425840  0.79273582    -0.05500
C1305       C  0.83621317  0.16191774  0.75090225     0.00500
C1306       C  0.81397398  0.13621963  0.79341742    -0.08000
C1307       C  0.79271699  0.10422455  0.76113657     0.62400
H1308       H  0.79559561  0.12004299  0.90570173     0.13100
H1309       H  0.88208501  0.20017753  0.76158802     0.13100
C1310       C  0.89537435  0.20508615  0.90784981     0.62600
F1311       F  0.76248408  0.09646258  0.76870440    -0.22500
F1312       F  0.79693634  0.08378926  0.80378270    -0.19900
F1313       F  0.79791373  0.10047338  0.68483148    -0.19600
F1314       F  0.89795226  0.20231026  0.98640023    -0.19600
F1315       F  0.90539316  0.23515597  0.89140954    -0.19900
F1316       F  0.91507587  0.19759893  0.87295905    -0.22600
C1317       C  0.86041408  0.18420030  0.28856182    -0.05400
C1318       C  0.83348521  0.16136722  0.25138534     0.00500
C1319       C  0.81397004  0.13543305  0.29706424    -0.08100
C1320       C  0.81573948  0.13887290  0.37792069    -0.05500
C1321       C  0.83929218  0.16494363  0.41530210     0.00500
C1322       C  0.86493203  0.18479836  0.36911292    -0.08000
C1323       C  0.89810714  0.20381338  0.39719516     0.62400
H1324       H  0.87957033  0.20015516  0.25373200     0.13100
H1325       H  0.79981773  0.11968015  0.41262187     0.13100
C1326       C  0.79359760  0.10289812  0.26838333     0.62600
F1327       F  0.91601097  0.19626790  0.35360306    -0.22500
F1328       F  0.90252706  0.19907817  0.47358862    -0.19900
F1329       F  0.90865563  0.23432566  0.38636505    -0.19600
F1330       F  0.79520577  0.09886290  0.19002728    -0.19600
F1331       F  0.76357823  0.09286815  0.28794314    -0.19900
F1332       F  0.80244577  0.08464860  0.30545148    -0.22600
C1333       C  0.83767618  0.66511775  0.16241802     0.30300
C1334       C  0.83697035  0.66785181  0.00350371     0.30300
C1335       C  0.85411920  0.65155658  0.11892098    -0.05900
C1336       C  0.80545833  0.64977468  0.12337140    -0.06600
C1337       C  0.85222936  0.69746187  0.12740596    -0.06500
C1338       C  0.85304141  0.65236329  0.03907604    -0.05900
C1339       C  0.80521449  0.65087505  0.04230195    -0.06600
C1340       C  0.85117817  0.69857708  0.04660319    -0.06500
C1341       C  0.86601270  0.63650217  0.01082534    -0.31900
N1342       N  0.87669231  0.62753217  0.07135848     0.14600
C1343       C  0.86909689  0.63629149  0.13793335    -0.31900
H1344       H  0.87350235  0.63129924  0.19595972     0.16500
C1345       C  0.77516128  0.63933155  0.01901692    -0.30900
N1346       N  0.75719650  0.63036077  0.08255005     0.13300
C1347       C  0.77535753  0.63742801  0.14673086    -0.30900
C1348       C  0.86184845  0.72833607  0.02661179    -0.31200
N1349       N  0.87041588  0.74553803  0.09207895     0.13800
H1350       H  0.86347817  0.73700838  0.96868609     0.16500
C1351       C  0.86445504  0.72706753  0.15400307    -0.31200
H1352       H  0.86850277  0.73478961  0.21369795     0.16500
H1353       H  0.76730211  0.63452010  0.20558423     0.16500
H1354       H  0.86580789  0.63042778  0.95088196     0.16500
H1355       H  0.76679510  0.63816806  0.96050030     0.16500
C1356       C  0.84121108  0.66723360  0.50249024     0.30300
C1357       C  0.83755614  0.66740162  0.66103409     0.30300
C1358       C  0.85390885  0.65022207  0.54650653    -0.05900
C1359       C  0.85749272  0.69879772  0.54168074    -0.06600
C1360       C  0.80845027  0.65346008  0.53617832    -0.06500
C1361       C  0.85247881  0.65056670  0.62650222    -0.05900
C1362       C  0.85577682  0.69912354  0.62237896    -0.06600
C1363       C  0.80694589  0.65421865  0.61681107    -0.06500
C1364       C  0.86650911  0.63545509  0.65469419    -0.31900
N1365       N  0.87578578  0.62567376  0.59334043     0.14600
C1366       C  0.86851634  0.63486668  0.52710692    -0.31900
H1367       H  0.87418879  0.63131555  0.46924731     0.16500
C1368       C  0.86564103  0.72890065  0.64348366    -0.30900
N1369       N  0.87539028  0.74665523  0.57930832     0.13300
C1370       C  0.86903297  0.72812459  0.51684851    -0.30900
C1371       C  0.77694733  0.64376872  0.63591603    -0.31200
N1372       N  0.75982540  0.63562115  0.56991403     0.13800
H1373       H  0.76806800  0.64216641  0.69345669     0.16500
C1374       C  0.77869919  0.64152782  0.50858942    -0.31200
H1375       H  0.77113936  0.63753034  0.44862328     0.16500
H1376       H  0.87117922  0.73532834  0.45729831     0.16500
H1377       H  0.86981267  0.63191518  0.71495247     0.16500
H1378       H  0.86342935  0.73648561  0.70014492     0.16500
C1379       C  0.66123987  0.83132362  0.00884178     0.30300
C1380       C  0.66058748  0.83395764  0.84976115     0.30300
C1381       C  0.64391219  0.84594568  0.97314681    -0.05900
C1382       C  0.69264460  0.84898161  0.96993598    -0.06600
C1383       C  0.64537229  0.80049337  0.96534724    -0.06500
C1384       C  0.64420001  0.84773051  0.89276252    -0.05900
C1385       C  0.69266786  0.85000159  0.88927285    -0.06600
C1386       C  0.64676028  0.80204015  0.88453316    -0.06500
C1387       C  0.62837357  0.86189445  0.87175959    -0.31900
N1388       N  0.61777465  0.86795039  0.93702901     0.14600
C1389       C  0.62695349  0.85830651  0.99909996    -0.31900
H1390       H  0.62186750  0.86060860  0.05856407     0.16500
C1391       C  0.72283941  0.86160817  0.86734190    -0.30900
N1392       N  0.74066405  0.86831566  0.93219418     0.13300
C1393       C  0.72247328  0.86113888  0.99502348    -0.30900
C1394       C  0.63444490  0.77284743  0.85661120    -0.31200
N1395       N  0.62390238  0.75366033  0.91738579     0.13800
H1396       H  0.63267270  0.76587937  0.79625165     0.16500
C1397       C  0.62929955  0.77007624  0.98360207    -0.31200
H1398       H  0.62169270  0.76043960  0.04014472     0.16500
H1399       H  0.73021875  0.86380934  0.05473472     0.16500
H1400       H  0.62503727  0.86762366  0.81357169     0.16500
H1401       H  0.73117213  0.86381333  0.80887631     0.16500
C1402       C  0.66266384  0.83640714  0.35069425     0.30300
C1403       C  0.66243571  0.83930880  0.50963907     0.30300
C1404       C  0.64348729  0.84884133  0.38582654    -0.05900
C1405       C  0.64847511  0.80531532  0.39296860    -0.06600
C1406       C  0.69417172  0.85493898  0.39108322    -0.06500
C1407       C  0.64408097  0.85092736  0.46621378    -0.05900
C1408       C  0.64895982  0.80702084  0.47401031    -0.06600
C1409       C  0.69413791  0.85605651  0.47143265    -0.06500
C1410       C  0.62628206  0.86288736  0.48662746    -0.31900
N1411       N  0.61452601  0.86764061  0.42095848     0.14600
C1412       C  0.62444940  0.85878524  0.35917649    -0.31900
H1413       H  0.61844594  0.85986679  0.29944615     0.16500
C1414       C  0.63562717  0.77760899  0.50114755    -0.30900
N1415       N  0.62656988  0.75811980  0.43990891     0.13300
C1416       C  0.63338880  0.77457374  0.37377170    -0.30900
C1417       C  0.72434272  0.86993012  0.49548839    -0.31200
N1418       N  0.74272940  0.87890915  0.43241787     0.13800
H1419       H  0.73245403  0.87224981  0.55463612     0.16500
C1420       C  0.72440216  0.86897590  0.36815367    -0.31200
H1421       H  0.73219897  0.87014962  0.30951076     0.16500
H1422       H  0.62749975  0.76459366  0.31630861     0.16500
H1423       H  0.62258528  0.86828996  0.54475136     0.16500
H1424       H  0.63227562  0.77065891  0.56106270     0.16500
O1425       O  0.53486074  0.98698552  0.05023525    -0.88000
C1426       C  0.54827778  0.54549072  0.86740253     0.88000
Mg1427     Mg  0.50114322  0.93943060  0.04617510     1.58100
O1428       O  0.51275182  0.55301017  0.03294029    -0.87700
O1429       O  0.55412846  0.53190678  0.11835682    -0.75100
C1430       C  0.87155315  0.92763998  0.96527133     0.93100
O1431       O  0.52365290  0.97231628  0.86817227    -0.74900
O1432       O  0.88560068  0.91309296  0.95936785    -0.82400
Mg1433     Mg  0.56899884  0.50905564  0.94680107     1.58000
C1434       C  0.93192698  0.55345086  0.04746885     0.93000
O1435       O  0.61302075  0.54477752  0.01382675    -0.80600
H1436       H  0.51387579  0.56147584  0.14635653    -0.06000
C1437       C  0.94882373  0.99553319  0.88831406     0.87900
O1438       O  0.97322252  0.94891228  0.13970752    -0.75200
O1439       O  0.55400563  0.54109965  0.93427092    -0.87900
O1440       O  0.95901365  0.56655594  0.02033493    -0.80700
C1441       C  0.55639994  0.62373763  0.93511952     0.93100
C1442       C  0.62653434  0.57281947  0.03421123     0.93000
Mg1443     Mg  0.92913909  0.98969668  0.05617988     1.58000
O1444       O  0.88505204  0.95508258  0.98968696    -0.80700
O1445       O  0.97368415  0.52450074  0.13812030    -0.74900
O1446       O  0.57147370  0.61228553  0.96361729    -0.80700
O1447       O  0.57749667  0.97020643  0.95626946    -0.82400
O1448       O  0.92727250  0.88774913  0.02991908    -0.80800
C1449       C  0.00095892  0.54587531  0.12510014     0.87400
O1450       O  0.94462567  0.95801964  0.06186488    -0.87900
O1451       O  0.95843665  0.50753974  0.95790670    -0.88000
O1452       O  0.94288878  0.96843473  0.87901365    -0.75100
Mg1453     Mg  0.56098188  0.56959061  0.03394258     1.58000
O1454       O  0.52780873  0.60758395  0.92166695    -0.82400
H1455       H  0.53971919  0.98597885  0.16517588    -0.06200
O1456       O  0.98531539  0.94682015  0.95800317    -0.87700
H1457       H  0.98333572  0.93835993  0.84434686    -0.06000
H1458       H  0.93842677  0.95419717  0.17641904    -0.06200
C1459       C  0.49577305  0.95147555  0.87619321     0.87400
C1460       C  0.54743634  0.50446955  0.11187428     0.88000
C1461       C  0.95114111  0.95333799  0.12756737     0.88000
H1462       H  0.95121213  0.50708798  0.84369378    -0.06100
O1463       O  0.52654344  0.55017487  0.85235088    -0.75200
Mg1464     Mg  0.93689255  0.93026058  0.96027975     1.58000
H1465       H  0.56142893  0.54423612  0.82016511    -0.06200
C1466       C  0.56256787  0.94157420  0.96616199     0.93000
O1467       O  0.97067873  0.89123753  0.06848674    -0.82400
C1468       C  0.94172588  0.87570184  0.05893243     0.93100
O1469       O  0.61192256  0.58677816  0.03711356    -0.82400
Mg1470     Mg  0.99115792  0.55521300  0.95498254     1.58200
O1471       O  0.53452967  0.92779073  0.98671731    -0.80700
O1472       O  0.91699245  0.52496565  0.05982076    -0.82400
O1473       O  0.98781044  0.53982995  0.45498249    -0.88000
C1474       C  0.54999681  0.54962001  0.62520998     0.88000
Mg1475     Mg  0.93993469  0.50689855  0.46885870     1.58100
O1476       O  0.55370854  0.51708688  0.44907359    -0.87700
O1477       O  0.52704937  0.55681790  0.38184743    -0.75100
C1478       C  0.93140484  0.87535647  0.53077706     0.93100
O1479       O  0.98082607  0.52876839  0.63846505    -0.74900
O1480       O  0.91708459  0.88925976  0.54280451    -0.82400
Mg1481     Mg  0.50873574  0.56870042  0.56460674     1.58000
C1482       C  0.55428335  0.93578445  0.44774557     0.93000
O1483       O  0.54045636  0.61346447  0.49912789    -0.80600
H1484       H  0.55897274  0.51921571  0.33408556    -0.06000
C1485       C  0.00345829  0.95382954  0.60026166     0.87900
O1486       O  0.94361979  0.97367878  0.36827202    -0.75200
O1487       O  0.54260346  0.55551941  0.56207670    -0.87900
O1488       O  0.56965417  0.96305854  0.47379441    -0.80700
C1489       C  0.62793353  0.56335196  0.54110175     0.93100
C1490       C  0.56764090  0.62798851  0.47253930     0.93000
Mg1491     Mg  0.99012494  0.93254673  0.43368687     1.58000
O1492       O  0.95860854  0.88884324  0.50418613    -0.80700
O1493       O  0.52223942  0.97679989  0.36865117    -0.74900
O1494       O  0.61350890  0.57651064  0.51980973    -0.80700
O1495       O  0.97637209  0.58353897  0.56467411    -0.82400
O1496       O  0.88853943  0.92899119  0.48986054    -0.80800
C1497       C  0.54411273  0.00401397  0.37897227     0.87400
O1498       O  0.95755963  0.94708932  0.43806309    -0.87900
O1499       O  0.51247385  0.96336821  0.55085587    -0.88000
O1500       O  0.97631631  0.94698789  0.61655826    -0.75100
Mg1501     Mg  0.56823606  0.56471306  0.45666637     1.58000
O1502       O  0.61427948  0.53448224  0.54618395    -0.82400
H1503       H  0.98207491  0.54474744  0.34225584    -0.06200
O1504       O  0.95055425  0.98760358  0.55146635    -0.87700
H1505       H  0.94735070  0.98654301  0.66693175    -0.06000
H1506       H  0.94844787  0.93961326  0.32449423    -0.06200
C1507       C  0.95944468  0.50115188  0.63109129     0.87400
C1508       C  0.49954697  0.54954573  0.39501446     0.88000
C1509       C  0.94951419  0.95253377  0.37528751     0.88000
H1510       H  0.51591554  0.95752012  0.66423224    -0.06100
O1511       O  0.55673724  0.52903397  0.63192190    -0.75200
Mg1512     Mg  0.93425215  0.93983321  0.54653667     1.58400
H1513       H  0.54985111  0.56169379  0.67647767    -0.06200
C1514       C  0.94715610  0.56827739  0.56396762     0.93000
O1515       O  0.88869003  0.97125989  0.46171879    -0.82400
C1516       C  0.87440077  0.94257616  0.47104178     0.93100
O1517       O  0.58307398  0.61506379  0.46154133    -0.82400
Mg1518     Mg  0.56084844  0.99664136  0.54431844     1.58200
O1519       O  0.93255098  0.54045931  0.54200777    -0.80700
O1520       O  0.52523374  0.92185649  0.44077194    -0.82400
C1521       C  0.58233606  0.70669558  0.41603215    -0.05400
C1522       C  0.61238032  0.72548568  0.44456655     0.00500
C1523       C  0.62835339  0.71202178  0.47627329    -0.08100
C1524       C  0.61307707  0.68013545  0.48248635    -0.05500
C1525       C  0.58243002  0.66128564  0.45813733     0.00500
C1526       C  0.56693554  0.67467380  0.42237491    -0.08000
C1527       C  0.53450299  0.65533994  0.39019211     0.62400
H1528       H  0.57079813  0.71745565  0.39047289     0.13100
H1529       H  0.62481227  0.66968680  0.50877716     0.13100
C1530       C  0.66167368  0.73126109  0.50198694     0.62600
F1531       F  0.52627034  0.67215359  0.34418218    -0.22500
F1532       F  0.51397740  0.64338275  0.45049530    -0.19900
F1533       F  0.53219174  0.63184271  0.34519515    -0.19600
F1534       F  0.66392548  0.74724748  0.56873648    -0.19600
F1535       F  0.67864355  0.75147835  0.44416811    -0.19900
F1536       F  0.67444451  0.71359473  0.51749095    -0.22600
C1537       C  0.78898049  0.88245896  0.48678214    -0.05400
C1538       C  0.77580333  0.89394866  0.43583572     0.00500
C1539       C  0.79513182  0.92187023  0.39779024    -0.08100
C1540       C  0.82715102  0.93608262  0.40837838    -0.05500
C1541       C  0.84038393  0.92469683  0.45991944     0.00500
C1542       C  0.82071735  0.89797211  0.50263868    -0.08000
C1543       C  0.83226641  0.88723107  0.56991322     0.62400
H1544       H  0.77370558  0.86163529  0.51697552     0.13100
H1545       H  0.84216044  0.95679881  0.37742698     0.13100
C1546       C  0.78227186  0.93780657  0.35038385     0.62600
F1547       F  0.80846386  0.86323299  0.60892698    -0.22500
F1548       F  0.84806414  0.91084416  0.62245476    -0.19900
F1549       F  0.85130831  0.87743104  0.54387803    -0.19600
F1550       F  0.75985880  0.93921575  0.39185442    -0.19600
F1551       F  0.76991199  0.92233405  0.28151173    -0.19900
F1552       F  0.80475973  0.96732329  0.33260020    -0.22600
C1553       C  0.61502847  0.91507663  0.40315648    -0.05400
C1554       C  0.59841362  0.88379309  0.41747987     0.00500
C1555       C  0.56669831  0.86905360  0.43131960    -0.08100
C1556       C  0.55294977  0.88675082  0.43785756    -0.05500
C1557       C  0.56999372  0.91866476  0.42970631     0.00500
C1558       C  0.60123556  0.93285193  0.40749827    -0.08000
C1559       C  0.62010232  0.96638179  0.38799657     0.62400
H1560       H  0.63923053  0.92557554  0.39066650     0.13100
H1561       H  0.52890502  0.87572052  0.45244568     0.13100
C1562       C  0.54779852  0.83479281  0.43959683     0.62600
F1563       F  0.64656893  0.97324314  0.34897450    -0.22500
F1564       F  0.62849363  0.98350821  0.45538464    -0.19900
F1565       F  0.60330453  0.97444909  0.34078100    -0.19600
F1566       F  0.55706067  0.82614319  0.50530528    -0.19600
F1567       F  0.55185445  0.82108013  0.37536939    -0.19900
F1568       F  0.51678282  0.82439841  0.44546596    -0.22600
C1569       C  0.57552971  0.70607262  0.92558439    -0.05400
C1570       C  0.60699751  0.72116301  0.91283427     0.00500
C1571       C  0.62173406  0.70448786  0.90176797    -0.08100
C1572       C  0.60419971  0.67256240  0.90643343    -0.05500
C1573       C  0.57249804  0.65709916  0.92132634     0.00500
C1574       C  0.55773048  0.67424178  0.92996651    -0.08000
C1575       C  0.52370334  0.65968622  0.94659947     0.62400
H1576       H  0.56525691  0.71987269  0.93352895     0.13100
H1577       H  0.61526254  0.65945362  0.89932210     0.13100
C1578       C  0.65589265  0.72061297  0.88661413     0.62600
F1579       F  0.51560389  0.68126917  0.95990114    -0.22500
F1580       F  0.51622011  0.64182708  0.01208748    -0.19900
F1581       F  0.50666643  0.64215660  0.88366586    -0.19600
F1582       F  0.67185187  0.74212542  0.94392689    -0.19600
F1583       F  0.66197689  0.73488199  0.81556657    -0.19900
F1584       F  0.66651813  0.70058694  0.88557070    -0.22600
C1585       C  0.79194123  0.91016465  0.90114674    -0.05400
C1586       C  0.77343516  0.88150612  0.93417237     0.00500
C1587       C  0.78733021  0.86651213  0.96916988    -0.08100
C1588       C  0.81953563  0.88199686  0.97578667    -0.05500
C1589       C  0.83809444  0.91169025  0.94781866     0.00500
C1590       C  0.82418073  0.92558298  0.90690206    -0.08000
C1591       C  0.84311575  0.95623179  0.86815611     0.62400
H1592       H  0.78073789  0.92077056  0.87286670     0.13100
H1593       H  0.83037901  0.87136463  0.00579096     0.13100
C1594       C  0.76839032  0.83440640  0.99979292     0.62600
F1595       F  0.82537039  0.96239833  0.81885676    -0.22500
F1596       F  0.86601893  0.95652507  0.82471165    -0.19900
F1597       F  0.85614218  0.97905477  0.92359706    -0.19600
F1598       F  0.74501610  0.81632036  0.94795554    -0.19600
F1599       F  0.75605889  0.83494449  0.07027473    -0.19900
F1600       F  0.78605665  0.82125314  0.01063646    -0.22600
C1601       C  0.62257322  0.91747047  0.94872691    -0.05400
C1602       C  0.60365372  0.88598025  0.94124774     0.00500
C1603       C  0.57154905  0.87255790  0.94186949    -0.08100
C1604       C  0.55913452  0.89151985  0.94813024    -0.05500
C1605       C  0.57795045  0.92346669  0.95552851     0.00500
C1606       C  0.61050179  0.93663458  0.95722127    -0.08000
C1607       C  0.63281650  0.97042545  0.97068350     0.62400
H1608       H  0.64706658  0.92672426  0.94913068     0.13100
H1609       H  0.53445775  0.88131269  0.94762208     0.13100
C1610       C  0.55081343  0.83829692  0.93608853     0.62600
F1611       F  0.66282005  0.97713621  0.97840996    -0.22500
F1612       F  0.62551276  0.97976901  0.03825798    -0.19900
F1613       F  0.63162657  0.98679500  0.90854341    -0.19600
F1614       F  0.55793330  0.82456755  0.99486990    -0.19600
F1615       F  0.55493920  0.82821938  0.86537624    -0.19900
F1616       F  0.52015616  0.82930929  0.94244101    -0.22600
C1617       C  0.68182873  0.86224322  0.72537737    -0.05400
C1618       C  0.65845743  0.83608432  0.76167351     0.00500
C1619       C  0.63177267  0.81673359  0.71553030    -0.08100
C1620       C  0.63452492  0.81861853  0.63460620    -0.05500
C1621       C  0.66089078  0.84141051  0.59799043     0.00500
C1622       C  0.68168781  0.86667942  0.64515154    -0.08000
C1623       C  0.70013031  0.89959317  0.61887119     0.62400
H1624       H  0.69867151  0.88100590  0.76069782     0.13100
H1625       H  0.61487605  0.80300210  0.59932089     0.13100
C1626       C  0.59924743  0.79555677  0.74420363     0.62600
F1627       F  0.69182314  0.91673101  0.66311543    -0.22500
F1628       F  0.69491857  0.90356737  0.54244228    -0.19900
F1629       F  0.73112749  0.91099521  0.63086313    -0.19600
F1630       F  0.59563605  0.79698576  0.82275738    -0.19600
F1631       F  0.58983102  0.76587257  0.72388648    -0.19900
F1632       F  0.57975714  0.80327319  0.70817764    -0.22600
C1633       C  0.66862331  0.85872961  0.13479025    -0.05400
C1634       C  0.66426879  0.83231574  0.09766503     0.00500
C1635       C  0.66940460  0.81233665  0.14426596    -0.08100
C1636       C  0.66748278  0.81398617  0.22517567    -0.05500
C1637       C  0.66521751  0.83721300  0.26218190     0.00500
C1638       C  0.67091189  0.86256961  0.21553880    -0.08000
C1639       C  0.68162980  0.89486308  0.24338587     0.62400
H1640       H  0.67237598  0.87784481  0.09980080     0.13100
H1641       H  0.67120648  0.79868381  0.25998974     0.13100
C1642       C  0.68100566  0.79187311  0.11629309     0.62600
F1643       F  0.70848655  0.91490887  0.20580734    -0.22500
F1644       F  0.68787914  0.89977342  0.32160817    -0.19900
F1645       F  0.65971993  0.90217173  0.22401537    -0.19600
F1646       F  0.68956732  0.79601954  0.03975536    -0.19600
F1647       F  0.65891456  0.76173191  0.12813174    -0.19900
F1648       F  0.70675447  0.79816117  0.15935071    -0.22600
C1649       C  0.92295042  0.62568484  0.62176499    -0.05400
C1650       C  0.89234240  0.60993733  0.59671721     0.00500
C1651       C  0.87879087  0.57959194  0.57104969    -0.08100
C1652       C  0.89723031  0.56660273  0.56489142    -0.05500
C1653       C  0.92891112  0.58300886  0.58366727     0.00500
C1654       C  0.94168322  0.61285089  0.61624356    -0.08000
C1655       C  0.97475258  0.63163985  0.64443799     0.62400
H1656       H  0.93233940  0.64877541  0.64258186     0.13100
H1657       H  0.88695005  0.54371584  0.54185575     0.13100
C1658       C  0.84497538  0.56129918  0.54915625     0.62600
F1659       F  0.98031277  0.65757115  0.68403143    -0.22500
F1660       F  0.99427818  0.64076074  0.58199119    -0.19900
F1661       F  0.98136452  0.61471686  0.69459628    -0.19600
F1662       F  0.84000445  0.57177868  0.48006904    -0.19600
F1663       F  0.82772379  0.56413556  0.60652915    -0.19900
F1664       F  0.83478667  0.53069507  0.54017606    -0.22600
C1665       C  0.87649233  0.78990872  0.51679528    -0.05400
C1666       C  0.88808125  0.77913601  0.57459165     0.00500
C1667       C  0.91450688  0.80042985  0.61802125    -0.08100
C1668       C  0.92736968  0.83179608  0.60388976    -0.05500
C1669       C  0.91568701  0.84227469  0.54577142     0.00500
C1670       C  0.89049196  0.82100719  0.49963912    -0.08000
C1671       C  0.87977358  0.83091202  0.42919745     0.62400
H1672       H  0.85686112  0.77341276  0.48295541     0.13100
H1673       H  0.94720836  0.84847076  0.63685447     0.13100
C1674       C  0.93051660  0.79035162  0.67481493     0.62600
F1675       F  0.85737711  0.80631699  0.38709561    -0.22500
F1676       F  0.90428115  0.84780220  0.38070817    -0.19900
F1677       F  0.86775577  0.84840193  0.45206300    -0.19600
F1678       F  0.93697689  0.77022193  0.63853768    -0.19600
F1679       F  0.91221421  0.77654990  0.73812413    -0.19900
F1680       F  0.95792507  0.81467012  0.70222915    -0.22600
C1681       C  0.67808550  0.61092684  0.51831645    -0.05400
C1682       C  0.66187009  0.58249989  0.55561962     0.00500
C1683       C  0.67860420  0.57350627  0.60421181    -0.08100
C1684       C  0.71084017  0.59190357  0.60742955    -0.05500
C1685       C  0.72681441  0.61942390  0.56735693     0.00500
C1686       C  0.71015921  0.62996250  0.52526708    -0.08000
C1687       C  0.72485562  0.66118738  0.48851438     0.62400
H1688       H  0.66560372  0.61858304  0.48314097     0.13100
H1689       H  0.72416337  0.58473602  0.64064913     0.13100
C1690       C  0.66299990  0.54542209  0.65491800     0.62600
F1691       F  0.70951574  0.67561274  0.51188312    -0.22500
F1692       F  0.72262102  0.65797178  0.40874369    -0.19900
F1693       F  0.75536376  0.67986796  0.50920156    -0.19600
F1694       F  0.65005965  0.51940323  0.60967537    -0.19600
F1695       F  0.64051675  0.54588047  0.69846986    -0.19900
F1696       F  0.68351458  0.54411824  0.70585845    -0.22600
C1697       C  0.88055917  0.58395572  0.11392847    -0.05400
C1698       C  0.89110655  0.60955459  0.06630931     0.00500
C1699       C  0.91630849  0.61764555  0.01704692    -0.08100
C1700       C  0.92819382  0.59827385  0.01251277    -0.05500
C1701       C  0.91734677  0.57218666  0.05875705     0.00500
C1702       C  0.89368635  0.56545872  0.11272949    -0.08000
C1703       C  0.88333789  0.54019786  0.17187804     0.62400
H1704       H  0.86183691  0.57867467  0.15259173     0.13100
H1705       H  0.94627042  0.60352819  0.97171842     0.13100
C1706       C  0.93207498  0.64744202  0.97282732     0.62600
F1707       F  0.86282595  0.54029208  0.22405025    -0.22500
F1708       F  0.90852354  0.54412457  0.21359341    -0.19900
F1709       F  0.86891115  0.51211658  0.13537070    -0.19600
F1710       F  0.93675896  0.67111985  0.02092197    -0.19600
F1711       F  0.91472814  0.64588671  0.90909299    -0.19900
F1712       F  0.96037947  0.65414962  0.94591566    -0.22600
C1713       C  0.89169027  0.82691845  0.07085296    -0.05400
C1714       C  0.92400232  0.84240583  0.07849447     0.00500
C1715       C  0.93792285  0.82520013  0.09952991    -0.08100
C1716       C  0.91910540  0.79336465  0.10674037    -0.05500
C1717       C  0.88741992  0.77823551  0.09362143     0.00500
C1718       C  0.87325300  0.79511156  0.07759602    -0.08000
C1719       C  0.83879993  0.77927872  0.06585846     0.62400
H1720       H  0.88078670  0.83971128  0.05652899     0.13100
H1721       H  0.92901929  0.77957178  0.11993759     0.13100
C1722       C  0.97228948  0.83959958  0.11335785     0.62600
F1723       F  0.82879487  0.79979614  0.06378000    -0.22500
F1724       F  0.82405266  0.75933111  0.12597862    -0.19900
F1725       F  0.83061056  0.76326217  0.99660064    -0.19600
F1726       F  0.98176103  0.86078285  0.17290605    -0.19600
F1727       F  0.98807949  0.85341032  0.04644757    -0.19900
F1728       F  0.98006139  0.81833780  0.13434669    -0.22600
C1729       C  0.67368516  0.57130450  0.06423871    -0.05400
C1730       C  0.66026763  0.58922825  0.05334430     0.00500
C1731       C  0.67961577  0.62162962  0.05872202    -0.08100
C1732       C  0.71145554  0.63430485  0.07068889    -0.05500
C1733       C  0.72435248  0.61613093  0.08014473     0.00500
C1734       C  0.70525882  0.58421209  0.07878672    -0.08000
C1735       C  0.71823891  0.56396688  0.09511146     0.62400
H1736       H  0.65915180  0.54678688  0.06218361     0.13100
H1737       H  0.72692402  0.65871371  0.07178254     0.13100
C1738       C  0.66752049  0.64318603  0.05082112     0.62600
F1739       F  0.69641324  0.53348847  0.08526187    -0.22500
F1740       F  0.72854151  0.56839366  0.17097495    -0.19900
F1741       F  0.74236105  0.57090597  0.04625050    -0.19600
F1742       F  0.64647818  0.63747092  0.10835716    -0.19600
F1743       F  0.65388648  0.63953826  0.97870632    -0.19900
F1744       F  0.69066530  0.67337325  0.05824138    -0.22600
C1745       C  0.81545518  0.64268381  0.87423992    -0.05400
C1746       C  0.83847841  0.66826337  0.91477183     0.00500
C1747       C  0.86462134  0.68931904  0.87120620    -0.08100
C1748       C  0.86173251  0.68914601  0.79034743    -0.05500
C1749       C  0.83652453  0.66578623  0.74960951     0.00500
C1750       C  0.81533413  0.63975735  0.79321267    -0.08000
C1751       C  0.79390803  0.60759691  0.76190157     0.62400
H1752       H  0.79881036  0.62316403  0.90668607     0.13100
H1753       H  0.88130890  0.70599942  0.75833816     0.13100
C1754       C  0.89715628  0.71035122  0.90205161     0.62600
F1755       F  0.76373711  0.59958363  0.77284987    -0.22500
F1756       F  0.79908893  0.58746891  0.80303234    -0.19900
F1757       F  0.79789100  0.60355396  0.68491541    -0.19600
F1758       F  0.90142158  0.70640221  0.97904608    -0.19600
F1759       F  0.90546169  0.74029888  0.89028380    -0.19900
F1760       F  0.91711929  0.70486634  0.86091788    -0.22600
C1761       C  0.86623266  0.68559251  0.28897897    -0.05400
C1762       C  0.83969449  0.66278386  0.25054381     0.00500
C1763       C  0.81988158  0.63658678  0.29508264    -0.08100
C1764       C  0.82086947  0.63964124  0.37601278    -0.05500
C1765       C  0.84384795  0.66569259  0.41451064     0.00500
C1766       C  0.86995104  0.68591067  0.36987252    -0.08000
C1767       C  0.90279914  0.70512513  0.40027807     0.62400
H1768       H  0.88548184  0.70198328  0.25506151     0.13100
H1769       H  0.80460184  0.62036061  0.40993979     0.13100
C1770       C  0.79987862  0.60421089  0.26496800     0.62600
F1771       F  0.92131070  0.69771758  0.35890772    -0.22500
F1772       F  0.90629409  0.70042893  0.47736432    -0.19900
F1773       F  0.91339696  0.73563738  0.38904274    -0.19600
F1774       F  0.80183616  0.60078533  0.18643817    -0.19600
F1775       F  0.76968707  0.59367424  0.28382212    -0.19900
F1776       F  0.80891849  0.58599633  0.30137491    -0.22600
loop_ 
_geom_bond_atom_site_label_1 
_geom_bond_atom_site_label_2 
_geom_bond_distance 
_geom_bond_site_symmetry_2 
_ccdc_geom_bond_type 
C1            C3   1.533       .  S
C1            C5   1.558       .  S
C1            C4   1.552       .  S
C1          C430   1.533       .  S
C2            C6   1.527   1_556  S
C2            C8   1.539   1_556  S
C2            C7   1.543   1_556  S
C2          C414   1.534       .  S
C3           C11   1.383       .  A
C3            C6   1.381       .  A
C4           C15   1.385       .  A
C4            C7   1.401       .  A
C5           C19   1.391       .  A
C5            C8   1.397       .  A
C6            C9   1.373       .  A
C7           C13   1.378       .  A
C8           C16   1.375       .  A
C9           N10   1.356       .  A
C9           H22   1.081   1_554  S
N10          C11   1.359       .  A
N10         C366   1.440       .  S
C11          H12   1.084       .  S
C13          N14   1.353       .  A
C13          H23   1.082   1_554  S
N14          C15   1.358       .  A
N14         C401   1.436       .  S
C15          H21   1.079       .  S
C16          N17   1.353       .  A
C16          H18   1.080   1_554  S
N17          C19   1.361       .  A
N17         C385   1.440       .  S
C19          H20   1.082       .  S
C24          C26   1.529       .  S
C24          C28   1.549       .  S
C24          C27   1.538       .  S
C24         C433   1.532       .  S
C25          C29   1.536       .  S
C25          C31   1.542       .  S
C25          C30   1.560       .  S
C25         C417   1.533       .  S
C26          C34   1.377       .  A
C26          C29   1.382       .  A
C27          C38   1.375       .  A
C27          C30   1.398       .  A
C28          C42   1.379       .  A
C28          C31   1.395       .  A
C29          C32   1.385       .  A
C30          C36   1.389       .  A
C31          C39   1.382       .  A
C32          N33   1.359       .  A
C32          H45   1.082       .  S
N33          C34   1.360       .  A
N33         C318   1.443       .  S
C34          H35   1.082       .  S
C36          N37   1.361       .  A
C36          H46   1.081       .  S
N37          C38   1.355       .  A
N37         C334   1.444       .  S
C38          H44   1.080       .  S
C39          N40   1.357       .  A
C39          H41   1.081       .  S
N40          C42   1.356       .  A
N40         C353   1.439       .  S
C42          H43   1.082       .  S
C47          C49   1.552   1_554  S
C47          C51   1.544   1_554  S
C47          C50   1.534   1_554  S
C47         C302   1.535       .  S
C48          C52   1.539       .  S
C48          C54   1.545       .  S
C48          C53   1.553       .  S
C48         C286   1.534       .  S
C49          C57   1.388       .  A
C49          C52   1.390       .  A
C50          C61   1.379       .  A
C50          C53   1.391       .  A
C51          C65   1.379       .  A
C51          C54   1.396       .  A
C52          C55   1.384       .  A
C53          C59   1.388       .  A
C54          C62   1.384       .  A
C55          N56   1.357       .  A
C55          H68   1.082       .  S
N56          C57   1.359       .  A
N56         C270   1.443       .  S
C57          H58   1.082   1_556  S
C59          N60   1.359       .  A
C59          H69   1.080       .  S
N60          C61   1.355       .  A
N60         C254   1.440       .  S
C61          H67   1.084   1_556  S
C62          N63   1.358       .  A
C62          H64   1.078       .  S
N63          C65   1.358       .  A
N63         C238   1.438       .  S
C65          H66   1.073   1_556  S
C70          C72   1.540       .  S
C70          C74   1.534       .  S
C70          C73   1.556       .  S
C70         C305   1.531       .  S
C71          C75   1.535       .  S
C71          C77   1.537       .  S
C71          C76   1.553       .  S
C71         C289   1.534       .  S
C72          C80   1.382       .  A
C72          C75   1.389       .  A
C73          C84   1.386       .  A
C73          C76   1.402       .  A
C74          C88   1.380       .  A
C74          C77   1.385       .  A
C75          C78   1.377       .  A
C76          C82   1.384       .  A
C77          C85   1.376       .  A
C78          N79   1.359       .  A
C78          H91   1.083       .  S
N79          C80   1.358       .  A
N79         C222   1.441       .  S
C80          H81   1.082       .  S
C82          N83   1.358       .  A
C82          H92   1.081       .  S
N83          C84   1.357       .  A
N83         C190   1.442       .  S
C84          H90   1.082       .  S
C85          N86   1.359       .  A
C85          H87   1.080       .  S
N86          C88   1.359       .  A
N86         C206   1.446       .  S
C88          H89   1.078       .  S
O93         Mg95   2.163       .  S
O93        Mg545   2.157   1_554  S
O93         C572   1.237       .  S
C94         H133   1.081       .  S
C94         O107   1.237       .  S
C94         O131   1.271       .  A
Mg95       O1012   2.152   1_454  S
Mg95        O139   2.341   1_554  S
Mg95       O1023   2.284   1_455  S
Mg95        O994   2.303   1_455  S
O96        Mg121   2.156       .  S
O96       Mg1026   2.159   1_454  S
O96        C1005   1.238   1_455  S
O97         C128   1.270       .  A
O97        Mg121   2.300       .  S
C98         O100   1.278       .  A
C98         O112   1.273       .  A
C98         C257   1.494       .  S
O99         C127   1.271   1_455  A
O99        Mg545   2.301       .  S
O100       Mg132   2.294       .  S
Mg101       O107   2.153       .  S
Mg101       O537   2.153   1_546  S
Mg101       O103   2.321   1_556  S
Mg101       O543   2.298   1_545  S
Mg101       O559   2.284   1_545  S
C102        O140   1.271       .  A
C102        O108   1.278   1_554  A
C102        C369   1.500       .  S
O103        C110   1.279       .  A
H104       C1005   1.078   1_455  S
C105        H574   1.081       .  S
C105        O563   1.235       .  S
C105        O120   1.270       .  A
O106        C129   1.269       .  A
O106       Mg983   2.295       .  S
O107       Mg121   2.157   1_556  S
O108       Mg138   2.317       .  S
C109        O122   1.271       .  A
C109        O114   1.279       .  A
C109        C241   1.496       .  S
C110        O137   1.273       .  A
C110        C398   1.506       .  S
Mg111       O118   2.142       .  S
Mg111       O563   2.149   1_554  S
Mg111       O112   2.299   1_554  S
Mg111       O557   2.297       .  S
Mg111       O584   2.268       .  S
O113        C117   1.271       .  A
O113       Mg555   2.298   1_545  S
O114       Mg121   2.325   1_556  S
O115        C134   1.273       .  A
O115       Mg545   2.280       .  S
O116        C136   1.280       .  A
O116       Mg132   2.329   1_554  S
C117        H992   1.079       .  S
C117        O984   1.237       .  S
O118       Mg132   2.156   1_554  S
O118        C129   1.236       .  S
O119       Mg138   2.140       .  S
O119       Mg555   2.149   1_546  S
O119        C549   1.236   1_545  S
O120       Mg132   2.298       .  S
Mg121       O137   2.282       .  S
O122      Mg1026   2.267   1_455  S
H123        C572   1.082       .  S
O124       Mg132   2.157       .  S
O124       Mg983   2.163   1_556  S
O124       C1015   1.238       .  S
H125       C1015   1.079       .  S
H126        C129   1.081       .  S
C127       H1013   1.078       .  S
C127       O1012   1.237       .  S
C128        H567   1.082   1_545  S
C128        O537   1.235   1_545  S
H130        C549   1.081   1_545  S
O131      Mg1026   2.301   1_455  S
C134        O139   1.280       .  A
C134        C273   1.505       .  S
O135        C136   1.274       .  A
O135       Mg983   2.285       .  S
C136        C382   1.506       .  S
Mg138       O984   2.155   1_556  S
Mg138      O1010   2.265       .  S
Mg138      O1019   2.300       .  S
O140       Mg555   2.272   1_545  S
O141       Mg143   2.153       .  S
O141      Mg1037   2.160       .  S
O141       C1064   1.238       .  S
C142        H181   1.081       .  S
C142        O155   1.237       .  S
C142        O179   1.271       .  A
Mg143       O616   2.160   1_545  S
Mg143       O187   2.313       .  S
Mg143       O627   2.292   1_545  S
Mg143       O598   2.299   1_545  S
O144       Mg169   2.167       .  S
O144       Mg630   2.158   1_545  S
O144        C609   1.237   1_545  S
O145        C176   1.271   1_455  A
O145       Mg169   2.301       .  S
C146        O148   1.271       .  A
C146        O160   1.276       .  A
C146        C337   1.479       .  S
O147        C175   1.271       .  A
O147      Mg1037   2.300       .  S
O148       Mg180   2.259       .  S
Mg149       O155   2.148       .  S
Mg149      O1029   2.157   1_455  S
Mg149       O151   2.325       .  S
Mg149      O1035   2.301   1_455  S
Mg149      O1051   2.281   1_455  S
C150        O188   1.273       .  A
C150        O156   1.281       .  A
C150        C225   1.488       .  S
O151        C158   1.277       .  A
H152        C609   1.081   1_545  S
C153       H1066   1.081       .  S
C153       O1055   1.237       .  S
C153        O168   1.271       .  A
O154        C177   1.270       .  A
O154       Mg587   2.296       .  S
O155       Mg169   2.154       .  S
O156       Mg186   2.352       .  S
C157        O170   1.275       .  A
C157        O162   1.276       .  A
C157        C350   1.491       .  S
C158        O185   1.276       .  A
C158        C193   1.495       .  S
Mg159       O166   2.138       .  S
Mg159      O1055   2.160       .  S
Mg159       O160   2.323       .  S
Mg159      O1049   2.301       .  S
Mg159      O1076   2.253       .  S
O161        C165   1.272       .  A
O161      Mg1047   2.311   1_455  S
O162       Mg169   2.309       .  S
O163        C182   1.275       .  A
O163      Mg1037   2.299       .  S
O164        C184   1.274       .  A
O164       Mg180   2.304       .  S
C165        H596   1.082       .  S
C165        O588   1.237       .  S
O166       Mg180   2.151       .  S
O166        C177   1.236       .  S
O167       Mg186   2.160       .  S
O167      Mg1047   2.151   1_455  S
O167       C1041   1.236       .  S
O168       Mg180   2.300       .  S
Mg169       O185   2.293       .  S
O170       Mg630   2.287   1_545  S
H171       C1064   1.080       .  S
O172       Mg180   2.140       .  S
O172       Mg587   2.156       .  S
O172        C619   1.236       .  S
H173        C619   1.080       .  S
H174        C177   1.081       .  S
C175        H617   1.080   1_545  S
C175        O616   1.237   1_545  S
C176       H1059   1.080       .  S
C176       O1029   1.237       .  S
H178       C1041   1.081       .  S
O179       Mg630   2.303   1_545  S
C182        O187   1.278       .  A
C182        C321   1.502       .  S
O183        C184   1.274       .  A
O183       Mg587   2.282       .  S
C184        C209   1.493       .  S
Mg186       O588   2.157       .  S
Mg186       O614   2.303       .  S
Mg186       O623   2.303       .  S
O188      Mg1047   2.264   1_455  S
C189        C190   1.402       .  A
C189        C194   1.412       .  A
C189        H196   1.082       .  S
C190        C191   1.414       .  A
C191        C198   1.517       .  S
C191        C192   1.410       .  A
C192        C193   1.408       .  A
C192        H197   1.083       .  S
C193        C194   1.422       .  A
C194        C195   1.518       .  S
C195        F199   1.385       .  S
C195        F200   1.381       .  S
C195        F201   1.384       .  S
C198        F202   1.382       .  S
C198        F203   1.384       .  S
C198        F204   1.385       .  S
C205        C206   1.402       .  A
C205        C210   1.405       .  A
C205        H212   1.082       .  S
C206        C207   1.422       .  A
C207        C214   1.520       .  S
C207        C208   1.412       .  A
C208        C209   1.407       .  A
C208        H213   1.083       .  S
C209        C210   1.423       .  A
C210        C211   1.521       .  S
C211        F215   1.385       .  S
C211        F216   1.383       .  S
C211        F217   1.376       .  S
C214        F218   1.384       .  S
C214        F219   1.381       .  S
C214        F220   1.385       .  S
C221        C222   1.405       .  A
C221        C226   1.412       .  A
C221        H228   1.083       .  S
C222        C223   1.415       .  A
C223        C230   1.517       .  S
C223        C224   1.406       .  A
C224        C225   1.406       .  A
C224        H229   1.085       .  S
C225        C226   1.418       .  A
C226        C227   1.515       .  S
C227        F231   1.385       .  S
C227        F232   1.379       .  S
C227        F233   1.384       .  S
C230        F234   1.382       .  S
C230        F235   1.383       .  S
C230        F236   1.383       .  S
C237        C238   1.396       .  A
C237        C242   1.408       .  A
C237        H244   1.084       .  S
C238        C239   1.412       .  A
C239        C246   1.515       .  S
C239        C240   1.409       .  A
C240        C241   1.409       .  A
C240        H245   1.083       .  S
C241        C242   1.427       .  A
C242        C243   1.520       .  S
C243        F247   1.384       .  S
C243        F248   1.384   1_556  S
C243        F249   1.383       .  S
C246        F250   1.383       .  S
C246        F251   1.382       .  S
C246        F252   1.385       .  S
C253        C254   1.400       .  A
C253        C258   1.412       .  A
C253        H260   1.083       .  S
C254        C255   1.412       .  A
C255        C262   1.514       .  S
C255        C256   1.407       .  A
C256        C257   1.406       .  A
C256        H261   1.083       .  S
C257        C258   1.426       .  A
C258        C259   1.520       .  S
C259        F263   1.385       .  S
C259        F264   1.384       .  S
C259        F265   1.382       .  S
C262        F266   1.383       .  S
C262        F267   1.380   1_556  S
C262        F268   1.385       .  S
C269        C270   1.397       .  A
C269        C274   1.413       .  A
C269        H276   1.081       .  S
C270        C271   1.411       .  A
C271        C278   1.514       .  S
C271        C272   1.413       .  A
C272        C273   1.412       .  A
C272        H277   1.082       .  S
C273        C274   1.428       .  A
C274        C275   1.519       .  S
C275        F279   1.384       .  S
C275        F280   1.383   1_556  S
C275        F281   1.384       .  S
C278        F282   1.383       .  S
C278        F283   1.383       .  S
C278        F284   1.385       .  S
C285        C286   1.406       .  A
C285        C290   1.402       .  A
C285        H292   1.082       .  S
C286        C287   1.430       .  A
C287        C294   1.524       .  S
C287        C288   1.406       .  A
C288        C289   1.406       .  A
C288        H293   1.083       .  S
C289        C290   1.427       .  A
C290        C291   1.524       .  S
C291        F295   1.384       .  S
C291        F296   1.378       .  S
C291        F297   1.383       .  S
C294        F298   1.377       .  S
C294        F299   1.383       .  S
C294        F300   1.385       .  S
C301        C302   1.405       .  A
C301        C306   1.403       .  A
C301        H308   1.082       .  S
C302        C303   1.428       .  A
C303        C310   1.524       .  S
C303        C304   1.404       .  A
C304        C305   1.406       .  A
C304        H309   1.080       .  S
C305        C306   1.430       .  A
C306        C307   1.527       .  S
C307        F311   1.384       .  S
C307        F312   1.377       .  S
C307        F313   1.383       .  S
C310        F314   1.377       .  S
C310        F315   1.383       .  S
C310        F316   1.385       .  S
C317        C318   1.404       .  A
C317        C322   1.416       .  A
C317        H324   1.083       .  S
C318        C319   1.413       .  A
C319        C326   1.517       .  S
C319        C320   1.402       .  A
C320        C321   1.409       .  A
C320        H325   1.084       .  S
C321        C322   1.427       .  A
C322        C323   1.519       .  S
C323        F327   1.386       .  S
C323        F328   1.382       .  S
C323        F329   1.384       .  S
C326        F330   1.382       .  S
C326        F331   1.382       .  S
C326        F332   1.384       .  S
C333        C334   1.404       .  A
C333        C338   1.407       .  A
C333        H340   1.082       .  S
C334        C335   1.421       .  A
C335        C342   1.518       .  S
C335        C336   1.411       .  A
C336        C337   1.401       .  A
C336        H341   1.083       .  S
C337        C338   1.416       .  A
C338        C339   1.521       .  S
C339        F343   1.384       .  S
C339        F344   1.383       .  S
C339        F345   1.376       .  S
C342        F346   1.384       .  S
C342        F347   1.381       .  S
C342        F348   1.385       .  S
C349        C350   1.409       .  A
C349        C354   1.410       .  A
C349        H356   1.083       .  S
C350        C351   1.421       .  A
C351        C358   1.518       .  S
C351        C352   1.406       .  A
C352        C353   1.400       .  A
C352        H357   1.083       .  S
C353        C354   1.412       .  A
C354        C355   1.516       .  S
C355        F359   1.385       .  S
C355        F360   1.384       .  S
C355        F361   1.382       .  S
C358        F362   1.384       .  S
C358        F363   1.382       .  S
C358        F364   1.385       .  S
C365        C366   1.401       .  A
C365        C370   1.412       .  A
C365        H372   1.082       .  S
C366        C367   1.412       .  A
C367        C374   1.519   1_554  S
C367        C368   1.406       .  A
C368        C369   1.410       .  A
C368        H373   1.082   1_554  S
C369        C370   1.428       .  A
C370        C371   1.521       .  S
C371        F375   1.385       .  S
C371        F376   1.384       .  S
C371        F377   1.382       .  S
C374        F378   1.384   1_556  S
C374        F379   1.379       .  S
C374        F380   1.380       .  S
C381        C382   1.413       .  A
C381        C386   1.410       .  A
C381        H388   1.082       .  S
C382        C383   1.431       .  A
C383        C390   1.522       .  S
C383        C384   1.413       .  A
C384        C385   1.399       .  A
C384        H389   1.082       .  S
C385        C386   1.408       .  A
C386        C387   1.515       .  S
C387        F391   1.384       .  S
C387        F392   1.383       .  S
C387        F393   1.383       .  S
C390        F394   1.383       .  S
C390        F395   1.383   1_554  S
C390        F396   1.385       .  S
C397        C398   1.413       .  A
C397        C402   1.408       .  A
C397        H404   1.082       .  S
C398        C399   1.432       .  A
C399        C406   1.521       .  S
C399        C400   1.411       .  A
C400        C401   1.395       .  A
C400        H405   1.082       .  S
C401        C402   1.409       .  A
C402        C403   1.517       .  S
C403        F407   1.382       .  S
C403        F408   1.381       .  S
C403        F409   1.383       .  S
C406        F410   1.382       .  S
C406        F411   1.384   1_554  S
C406        F412   1.385       .  S
C413        C414   1.407       .  A
C413        C418   1.407       .  A
C413        H420   1.082       .  S
C414        C415   1.429       .  A
C415        C422   1.528       .  S
C415        C416   1.401       .  A
C416        C417   1.405       .  A
C416        H421   1.080       .  S
C417        C418   1.433       .  A
C418        C419   1.528       .  S
C419        F423   1.384       .  S
C419        F424   1.384       .  S
C419        F425   1.376       .  S
C422        F426   1.377       .  S
C422        F427   1.383       .  S
C422        F428   1.384       .  S
C429        C430   1.408       .  A
C429        C434   1.406       .  A
C429        H436   1.083       .  S
C430        C431   1.429       .  A
C431        C438   1.523       .  S
C431        C432   1.403       .  A
C432        C433   1.405       .  A
C432        H437   1.084       .  S
C433        C434   1.424       .  A
C434        C435   1.522       .  S
C435        F439   1.384       .  S
C435        F440   1.378       .  S
C435        F441   1.383       .  S
C438        F442   1.377       .  S
C438        F443   1.382       .  S
C438        F444   1.385       .  S
C445        C447   1.535       .  S
C445        C449   1.550       .  S
C445        C448   1.550       .  S
C445        C874   1.530       .  S
C446        C450   1.526   1_556  S
C446        C452   1.537   1_556  S
C446        C451   1.544   1_556  S
C446        C858   1.533       .  S
C447        C455   1.385       .  A
C447        C450   1.380       .  A
C448        C459   1.382       .  A
C448        C451   1.401       .  A
C449        C463   1.384       .  A
C449        C452   1.396       .  A
C450        C453   1.370   1_554  A
C451        C457   1.378       .  A
C452        C460   1.375       .  A
C453        N454   1.357   1_556  A
C453        H466   1.074       .  S
N454        C455   1.362       .  A
N454        C810   1.446       .  S
C455        H456   1.084       .  S
C457        N458   1.355       .  A
C457        H467   1.081   1_554  S
N458        C459   1.357       .  A
N458        C845   1.437       .  S
C459        H465   1.080       .  S
C460        N461   1.355       .  A
C460        H462   1.082   1_554  S
N461        C463   1.358       .  A
N461        C829   1.437       .  S
C463        H464   1.082       .  S
C468        C470   1.530       .  S
C468        C472   1.555       .  S
C468        C471   1.542       .  S
C468        C877   1.533       .  S
C469        C473   1.530       .  S
C469        C475   1.545       .  S
C469        C474   1.554       .  S
C469        C861   1.533       .  S
C470        C478   1.378       .  A
C470        C473   1.382       .  A
C471        C482   1.378       .  A
C471        C474   1.399       .  A
C472        C486   1.385       .  A
C472        C475   1.396       .  A
C473        C476   1.379       .  A
C474        C480   1.385       .  A
C475        C483   1.383       .  A
C476        N477   1.356       .  A
C476        H489   1.082       .  S
N477        C478   1.359       .  A
N477        C762   1.436       .  S
C478        H479   1.082       .  S
C480        N481   1.358       .  A
C480        H490   1.081       .  S
N481        C482   1.357       .  A
N481        C778   1.441       .  S
C482        H488   1.080       .  S
C483        N484   1.359       .  A
C483        H485   1.081       .  S
N484        C486   1.360       .  A
N484        C797   1.447       .  S
C486        H487   1.082       .  S
C491        C493   1.549       .  S
C491        C495   1.541       .  S
C491        C494   1.533       .  S
C491        C746   1.536   1_556  S
C492        C496   1.542       .  S
C492        C498   1.548       .  S
C492        C497   1.551       .  S
C492        C730   1.533       .  S
C493        C501   1.385       .  A
C493        C496   1.393       .  A
C494        C505   1.377       .  A
C494        C497   1.391       .  A
C495        C509   1.375       .  A
C495        C498   1.394       .  A
C496        C499   1.384       .  A
C497        C503   1.388       .  A
C498        C506   1.386       .  A
C499        N500   1.358       .  A
C499        H512   1.083       .  S
N500        C501   1.357       .  A
N500        C714   1.442       .  S
C501        H502   1.081   1_556  S
C503        N504   1.359       .  A
C503        H513   1.081       .  S
N504        C505   1.355       .  A
N504        C698   1.439       .  S
C505        H511   1.084   1_556  S
C506        N507   1.358       .  A
C506        H508   1.090       .  S
N507        C509   1.355       .  A
N507        C682   1.441       .  S
C509        H510   1.085   1_556  S
C514        C516   1.542       .  S
C514        C518   1.539       .  S
C514        C517   1.555       .  S
C514        C749   1.532       .  S
C515        C519   1.528       .  S
C515        C521   1.537       .  S
C515        C520   1.552       .  S
C515        C733   1.534       .  S
C516        C524   1.384       .  A
C516        C519   1.386       .  A
C517        C528   1.386       .  A
C517        C520   1.403       .  A
C518        C532   1.382       .  A
C518        C521   1.385       .  A
C519        C522   1.372       .  A
C520        C526   1.381       .  A
C521        C529   1.375       .  A
C522        N523   1.356       .  A
C522        H535   1.080       .  S
N523        C524   1.359       .  A
N523        C666   1.439       .  S
C524        H525   1.083       .  S
C526        N527   1.357       .  A
C526        H536   1.081       .  S
N527        C528   1.356       .  A
N527        C634   1.439       .  S
C528        H534   1.082       .  S
C529        N530   1.362       .  A
C529        H531   1.079       .  S
N530        C532   1.362       .  A
N530        C650   1.454       .  S
C532        H533   1.079       .  S
O537       Mg539   2.147       .  S
C538        H577   1.081       .  S
C538        O551   1.235       .  S
C538        O575   1.269       .  A
Mg539      O1456   2.162   1_454  S
Mg539       O583   2.321   1_554  S
Mg539      O1467   2.272   1_455  S
Mg539      O1438   2.295   1_455  S
O540      Mg1470   2.155   1_454  S
O540       Mg565   2.145       .  S
O540       C1449   1.238       .  S
O541        C572   1.272       .  A
O541       Mg565   2.310       .  S
C542        O544   1.277       .  A
C542        O556   1.274       .  A
C542        C701   1.494       .  S
O543        C571   1.271   1_455  A
O544       Mg576   2.290       .  S
Mg545       O551   2.150       .  S
Mg545       O547   2.332   1_556  S
C546        O584   1.270       .  A
C546        O552   1.276   1_554  A
C546        C813   1.494       .  S
O547        C554   1.281       .  A
H548       C1449   1.078       .  S
C549        O564   1.271       .  A
O550        C573   1.270       .  A
O550      Mg1427   2.297       .  S
O551       Mg565   2.154   1_556  S
O552       Mg582   2.307       .  S
C553        O566   1.270       .  A
C553        O558   1.279       .  A
C553        C685   1.499       .  S
C554        O581   1.270       .  A
C554        C842   1.505       .  S
Mg555       O562   2.144       .  S
Mg555       O556   2.305   1_554  S
O557        C561   1.271       .  A
O558       Mg565   2.346   1_556  S
O559        C578   1.273       .  A
O560        C580   1.279       .  A
O560       Mg576   2.325   1_554  S
C561       H1436   1.078       .  S
C561       O1428   1.237       .  S
O562       Mg576   2.154   1_554  S
O562        C573   1.236       .  S
O563       Mg582   2.131       .  S
O564       Mg576   2.302       .  S
Mg565       O581   2.263       .  S
O566      Mg1470   2.257   1_455  S
O568      Mg1427   2.159   1_556  S
O568       Mg576   2.161       .  S
O568       C1459   1.237       .  S
H569       C1459   1.078       .  S
H570        C573   1.081       .  S
C571       H1457   1.078       .  S
C571       O1456   1.237       .  S
O575      Mg1470   2.294   1_455  S
C578        O583   1.278       .  A
C578        C717   1.498       .  S
O579        C580   1.268       .  A
O579      Mg1427   2.249       .  S
C580        C826   1.498       .  S
Mg582      O1428   2.158   1_556  S
Mg582      O1454   2.237       .  S
Mg582      O1463   2.297       .  S
O585       Mg587   2.150       .  S
O585      Mg1481   2.156       .  S
O585       C1508   1.237       .  S
C586        H625   1.081       .  S
C586        O599   1.237       .  S
C586        O623   1.272       .  A
Mg587       O631   2.305       .  S
O588       Mg613   2.169       .  S
O589        C620   1.271   1_455  A
O589       Mg613   2.302       .  S
C590        O592   1.273       .  A
C590        O604   1.275       .  A
C590        C781   1.485       .  S
O591        C619   1.270       .  A
O591      Mg1481   2.299       .  S
O592       Mg624   2.281       .  S
Mg593      O1473   2.155   1_455  S
Mg593       O599   2.156       .  S
Mg593      O1479   2.305   1_455  S
Mg593      O1495   2.296   1_455  S
Mg593       O595   2.319       .  S
C594        O632   1.270       .  A
C594        O600   1.279       .  A
C594        C669   1.484       .  S
O595        C602   1.276       .  A
C597       H1510   1.080       .  S
C597       O1499   1.237       .  S
C597        O612   1.271       .  A
O598        C621   1.270       .  A
O599       Mg613   2.162       .  S
O600       Mg630   2.345       .  S
C601        O614   1.276       .  A
C601        O606   1.276       .  A
C601        C794   1.497       .  S
C602        O629   1.274       .  A
C602        C637   1.492       .  S
Mg603       O610   2.143       .  S
Mg603      O1499   2.159       .  S
Mg603       O604   2.313       .  S
Mg603      O1493   2.298       .  S
Mg603      O1520   2.247       .  S
O605        C609   1.272       .  A
O605      Mg1491   2.309   1_455  S
O606       Mg613   2.313       .  S
O607        C626   1.272       .  A
O607      Mg1481   2.272       .  S
O608        C628   1.275       .  A
O608       Mg624   2.309       .  S
O610       Mg624   2.153       .  S
O610        C621   1.236       .  S
O611      Mg1491   2.148   1_455  S
O611       Mg630   2.161       .  S
O611       C1485   1.236       .  S
O612       Mg624   2.303       .  S
Mg613       O629   2.284       .  S
H615       C1508   1.081       .  S
O616       Mg624   2.147       .  S
H618        C621   1.081       .  S
C620       H1503   1.081       .  S
C620       O1473   1.237       .  S
H622       C1485   1.081       .  S
C626        O631   1.276       .  A
C626        C765   1.498       .  S
O627        C628   1.275       .  A
C628        C653   1.491       .  S
O632      Mg1491   2.243   1_455  S
C633        C634   1.400       .  A
C633        C638   1.410       .  A
C633        H640   1.083       .  S
C634        C635   1.413       .  A
C635        C642   1.518       .  S
C635        C636   1.410       .  A
C636        C637   1.409       .  A
C636        H641   1.083       .  S
C637        C638   1.421       .  A
C638        C639   1.518       .  S
C639        F643   1.384       .  S
C639        F644   1.381       .  S
C639        F645   1.384       .  S
C642        F646   1.381       .  S
C642        F647   1.384       .  S
C642        F648   1.384       .  S
C649        C650   1.407       .  A
C649        C654   1.406       .  A
C649        H656   1.082       .  S
C650        C651   1.427       .  A
C651        C658   1.520       .  S
C651        C652   1.414       .  A
C652        C653   1.404       .  A
C652        H657   1.083       .  S
C653        C654   1.419       .  A
C654        C655   1.522       .  S
C655        F659   1.385       .  S
C655        F660   1.384       .  S
C655        F661   1.378       .  S
C658        F662   1.383       .  S
C658        F663   1.381       .  S
C658        F664   1.385       .  S
C665        C666   1.405       .  A
C665        C670   1.411       .  A
C665        H672   1.082       .  S
C666        C667   1.414       .  A
C667        C674   1.518       .  S
C667        C668   1.403       .  A
C668        C669   1.406       .  A
C668        H673   1.084       .  S
C669        C670   1.417       .  A
C670        C671   1.515       .  S
C671        F675   1.385       .  S
C671        F676   1.379       .  S
C671        F677   1.384       .  S
C674        F678   1.382       .  S
C674        F679   1.384       .  S
C674        F680   1.385       .  S
C681        C682   1.396       .  A
C681        C686   1.406       .  A
C681        H688   1.083       .  S
C682        C683   1.416       .  A
C683        C690   1.516       .  S
C683        C684   1.415       .  A
C684        C685   1.409       .  A
C684        H689   1.083       .  S
C685        C686   1.426       .  A
C686        C687   1.518       .  S
C687        F691   1.385   1_556  S
C687        F692   1.384   1_556  S
C687        F693   1.381       .  S
C690        F694   1.383       .  S
C690        F695   1.382       .  S
C690        F696   1.385       .  S
C697        C698   1.400       .  A
C697        C702   1.412       .  A
C697        H704   1.083       .  S
C698        C699   1.413       .  A
C699        C706   1.514       .  S
C699        C700   1.406       .  A
C700        C701   1.406       .  A
C700        H705   1.083       .  S
C701        C702   1.426       .  A
C702        C703   1.519       .  S
C703        F707   1.385       .  S
C703        F708   1.384       .  S
C703        F709   1.381       .  S
C706        F710   1.383       .  S
C706        F711   1.380   1_556  S
C706        F712   1.384       .  S
C713        C714   1.400       .  A
C713        C718   1.413       .  A
C713        H720   1.080       .  S
C714        C715   1.410       .  A
C715        C722   1.514       .  S
C715        C716   1.410       .  A
C716        C717   1.410       .  A
C716        H721   1.082       .  S
C717        C718   1.427       .  A
C718        C719   1.520       .  S
C719        F723   1.385   1_556  S
C719        F724   1.384   1_556  S
C719        F725   1.383       .  S
C722        F726   1.383       .  S
C722        F727   1.382       .  S
C722        F728   1.385       .  S
C729        C730   1.407       .  A
C729        C734   1.404       .  A
C729        H736   1.082       .  S
C730        C731   1.428       .  A
C731        C738   1.523       .  S
C731        C732   1.406       .  A
C732        C733   1.406       .  A
C732        H737   1.083       .  S
C733        C734   1.427       .  A
C734        C735   1.524       .  S
C735        F739   1.385       .  S
C735        F740   1.378       .  S
C735        F741   1.382       .  S
C738        F742   1.377       .  S
C738        F743   1.383       .  S
C738        F744   1.384       .  S
C745        C746   1.405       .  A
C745        C750   1.403       .  A
C745        H752   1.083       .  S
C746        C747   1.429       .  A
C747        C754   1.525       .  S
C747        C748   1.405       .  A
C748        C749   1.405       .  A
C748        H753   1.080       .  S
C749        C750   1.429       .  A
C750        C751   1.527       .  S
C751        F755   1.384       .  S
C751        F756   1.376       .  S
C751        F757   1.384       .  S
C754        F758   1.377       .  S
C754        F759   1.383       .  S
C754        F760   1.384       .  S
C761        C762   1.400       .  A
C761        C766   1.410       .  A
C761        H768   1.083       .  S
C762        C763   1.410       .  A
C763        C770   1.517       .  S
C763        C764   1.404       .  A
C764        C765   1.411       .  A
C764        H769   1.083       .  S
C765        C766   1.427       .  A
C766        C767   1.520       .  S
C767        F771   1.385       .  S
C767        F772   1.382       .  S
C767        F773   1.384       .  S
C770        F774   1.382       .  S
C770        F775   1.384       .  S
C770        F776   1.385       .  S
C777        C778   1.400       .  A
C777        C782   1.407       .  A
C777        H784   1.082       .  S
C778        C779   1.418       .  A
C779        C786   1.518       .  S
C779        C780   1.411       .  A
C780        C781   1.405       .  A
C780        H785   1.082       .  S
C781        C782   1.419       .  A
C782        C783   1.518       .  S
C783        F787   1.385       .  S
C783        F788   1.384       .  S
C783        F789   1.378       .  S
C786        F790   1.384       .  S
C786        F791   1.381       .  S
C786        F792   1.385       .  S
C793        C794   1.409       .  A
C793        C798   1.413       .  A
C793        H800   1.083       .  S
C794        C795   1.421       .  A
C795        C802   1.517       .  S
C795        C796   1.411       .  A
C796        C797   1.403       .  A
C796        H801   1.083       .  S
C797        C798   1.417       .  A
C798        C799   1.516       .  S
C799        F803   1.385       .  S
C799        F804   1.384       .  S
C799        F805   1.382       .  S
C802        F806   1.384       .  S
C802        F807   1.383       .  S
C802        F808   1.384       .  S
C809        C810   1.405       .  A
C809        C814   1.413       .  A
C809        H816   1.082       .  S
C810        C811   1.420   1_554  A
C811        C818   1.522       .  S
C811        C812   1.406       .  A
C812        C813   1.406   1_556  A
C812        H817   1.082       .  S
C813        C814   1.423       .  A
C814        C815   1.521       .  S
C815        F819   1.384       .  S
C815        F820   1.384       .  S
C815        F821   1.383       .  S
C818        F822   1.384       .  S
C818        F823   1.380       .  S
C818        F824   1.381       .  S
C825        C826   1.410       .  A
C825        C830   1.404       .  A
C825        H832   1.084   1_554  S
C826        C827   1.430       .  A
C827        C834   1.523       .  S
C827        C828   1.409       .  A
C828        C829   1.399       .  A
C828        H833   1.082       .  S
C829        C830   1.411       .  A
C830        C831   1.516       .  S
C831        F835   1.384       .  S
C831        F836   1.383       .  S
C831        F837   1.382   1_554  S
C834        F838   1.384       .  S
C834        F839   1.383       .  S
C834        F840   1.385       .  S
C841        C842   1.411       .  A
C841        C846   1.406       .  A
C841        H848   1.082       .  S
C842        C843   1.433       .  A
C843        C850   1.521       .  S
C843        C844   1.413       .  A
C844        C845   1.397       .  A
C844        H849   1.082       .  S
C845        C846   1.410       .  A
C846        C847   1.517       .  S
C847        F851   1.380       .  S
C847        F852   1.383       .  S
C847        F853   1.382   1_554  S
C850        F854   1.383       .  S
C850        F855   1.384       .  S
C850        F856   1.385       .  S
C857        C858   1.406       .  A
C857        C862   1.405       .  A
C857        H864   1.082       .  S
C858        C859   1.431       .  A
C859        C866   1.528       .  S
C859        C860   1.403       .  A
C860        C861   1.406       .  A
C860        H865   1.081       .  S
C861        C862   1.429       .  A
C862        C863   1.526       .  S
C863        F867   1.383       .  S
C863        F868   1.385       .  S
C863        F869   1.376       .  S
C866        F870   1.376       .  S
C866        F871   1.383       .  S
C866        F872   1.385       .  S
C873        C874   1.407       .  A
C873        C878   1.404       .  A
C873        H880   1.083       .  S
C874        C875   1.426       .  A
C875        C882   1.523       .  S
C875        C876   1.403       .  A
C876        C877   1.406       .  A
C876        H881   1.084       .  S
C877        C878   1.427       .  A
C878        C879   1.523       .  S
C879        F883   1.385       .  S
C879        F884   1.378       .  S
C879        F885   1.383       .  S
C882        F886   1.377       .  S
C882        F887   1.382       .  S
C882        F888   1.384       .  S
C889        C891   1.529       .  S
C889        C893   1.553       .  S
C889        C892   1.547       .  S
C889       C1318   1.532       .  S
C890        C894   1.527       .  S
C890        C896   1.540       .  S
C890        C895   1.554       .  S
C890       C1302   1.533   1_554  S
C891        C899   1.380       .  A
C891        C894   1.381       .  A
C892        C903   1.382       .  A
C892        C895   1.402       .  A
C893        C907   1.386       .  A
C893        C896   1.396       .  A
C894        C897   1.376       .  A
C895        C901   1.383       .  A
C896        C904   1.378       .  A
C897        N898   1.356       .  A
C897        H910   1.084   1_554  S
N898        C899   1.357       .  A
N898       C1254   1.434       .  S
C899        H900   1.081       .  S
C901        N902   1.357       .  A
C901        H911   1.082   1_554  S
N902        C903   1.357       .  A
N902       C1289   1.438       .  S
C903        H909   1.079       .  S
C904        N905   1.355       .  A
C904        H906   1.082   1_554  S
N905        C907   1.357       .  A
N905       C1273   1.437       .  S
C907        H908   1.082       .  S
C912        C914   1.528       .  S
C912        C916   1.548       .  S
C912        C915   1.543       .  S
C912       C1321   1.528       .  S
C913        C917   1.536       .  S
C913        C919   1.543       .  S
C913        C918   1.557       .  S
C913       C1305   1.530       .  S
C914        C922   1.377       .  A
C914        C917   1.383       .  A
C915        C926   1.379       .  A
C915        C918   1.399       .  A
C916        C930   1.383       .  A
C916        C919   1.393       .  A
C917        C920   1.383       .  A
C918        C924   1.389       .  A
C919        C927   1.382       .  A
C920        N921   1.360       .  A
C920        H933   1.082       .  S
N921        C922   1.356       .  A
N921       C1206   1.439       .  S
C922        H923   1.082       .  S
C924        N925   1.358       .  A
C924        H934   1.082       .  S
N925        C926   1.355       .  A
N925       C1222   1.440       .  S
C926        H932   1.080       .  S
C927        N928   1.358       .  A
C927        H929   1.079       .  S
N928        C930   1.358       .  A
N928       C1241   1.442       .  S
C930        H931   1.083       .  S
C935        C937   1.549   1_554  S
C935        C939   1.544   1_554  S
C935        C938   1.533   1_554  S
C935       C1190   1.538       .  S
C936        C940   1.536       .  S
C936        C942   1.543       .  S
C936        C941   1.552       .  S
C936       C1174   1.534       .  S
C937        C945   1.387   1_556  A
C937        C940   1.390       .  A
C938        C949   1.373       .  A
C938        C941   1.394       .  A
C939        C953   1.378       .  A
C939        C942   1.395       .  A
C940        C943   1.379       .  A
C941        C947   1.389       .  A
C942        C950   1.382       .  A
C943        N944   1.356       .  A
C943        H956   1.080       .  S
N944        C945   1.359   1_556  A
N944       C1158   1.439       .  S
C945        H946   1.082       .  S
C947        N948   1.361       .  A
C947        H957   1.081       .  S
N948        C949   1.353       .  A
N948       C1142   1.438       .  S
C949        H955   1.084   1_556  S
C950        N951   1.356       .  A
C950        H952   1.087       .  S
N951        C953   1.358       .  A
N951       C1126   1.438       .  S
C953        H954   1.071   1_556  S
C958        C960   1.540       .  S
C958        C962   1.536       .  S
C958        C961   1.553       .  S
C958       C1193   1.535       .  S
C959        C963   1.531       .  S
C959        C965   1.536       .  S
C959        C964   1.553       .  S
C959       C1177   1.537       .  S
C960        C968   1.381       .  A
C960        C963   1.391       .  A
C961        C972   1.385       .  A
C961        C964   1.403       .  A
C962        C976   1.380       .  A
C962        C965   1.386       .  A
C963        C966   1.375       .  A
C964        C970   1.381       .  A
C965        C973   1.374       .  A
C966        N967   1.355       .  A
C966        H979   1.083       .  S
N967        C968   1.355       .  A
N967       C1110   1.433       .  S
C968        H969   1.081       .  S
C970        N971   1.355       .  A
C970        H980   1.080       .  S
N971        C972   1.356       .  A
N971       C1078   1.438       .  S
C972        H978   1.081       .  S
C973        N974   1.360       .  A
C973        H975   1.079       .  S
N974        C976   1.361       .  A
N974       C1094   1.449       .  S
C976        H977   1.079       .  S
O981       Mg983   2.160       .  S
O981      Mg1433   2.158   1_554  S
O981       C1460   1.236       .  S
C982       H1021   1.082       .  S
C982        O995   1.237       .  S
C982       O1019   1.271       .  A
Mg983      O1027   2.317   1_554  S
O984      Mg1009   2.147       .  S
O985       C1016   1.269   1_545  A
O985      Mg1009   2.300       .  S
C986        O988   1.276       .  A
C986       O1000   1.273       .  A
C986       C1145   1.493       .  S
O987       C1015   1.272       .  A
O987      Mg1433   2.303       .  S
O988      Mg1020   2.284       .  S
Mg989      O1425   2.151   1_546  S
Mg989       O995   2.150       .  S
Mg989      O1431   2.302   1_545  S
Mg989      O1447   2.273   1_545  S
Mg989       O991   2.327   1_556  S
C990       O1028   1.271       .  A
C990        O996   1.278       .  A
C990       C1257   1.504       .  S
O991        C998   1.279       .  A
C993       H1462   1.081       .  S
C993       O1451   1.236       .  S
C993       O1008   1.269       .  A
O994       C1017   1.271       .  A
O995      Mg1009   2.161   1_556  S
O996      Mg1026   2.313   1_554  S
C997       O1010   1.271       .  A
C997       O1002   1.278       .  A
C997       C1129   1.496       .  S
C998       O1025   1.270       .  A
C998       C1286   1.498       .  S
Mg999      O1006   2.153       .  S
Mg999      O1451   2.155   1_554  S
Mg999      O1000   2.301   1_554  S
Mg999      O1445   2.300       .  S
Mg999      O1472   2.289       .  S
O1001      C1005   1.272       .  A
O1001     Mg1443   2.304   1_545  S
O1002     Mg1009   2.329   1_556  S
O1003      C1022   1.273       .  A
O1003     Mg1433   2.283       .  S
O1004      C1024   1.278       .  A
O1004     Mg1020   2.316   1_554  S
O1006     Mg1020   2.162   1_554  S
O1006      C1017   1.237       .  S
O1007     Mg1443   2.153   1_546  S
O1007     Mg1026   2.143       .  S
O1007      C1437   1.236   1_545  S
O1008     Mg1020   2.293       .  S
Mg1009     O1025   2.258       .  S
H1011      C1460   1.083       .  S
O1012     Mg1020   2.150       .  S
H1014      C1017   1.081       .  S
C1016      H1455   1.083       .  S
C1016      O1425   1.235       .  S
H1018      C1437   1.082   1_545  S
C1022      O1027   1.278       .  A
C1022      C1161   1.500       .  S
O1023      C1024   1.273       .  A
C1024      C1270   1.507       .  S
O1028     Mg1443   2.279   1_545  S
O1029     Mg1031   2.151       .  S
C1030      H1069   1.081       .  S
C1030      O1043   1.236       .  S
C1030      O1067   1.270       .  A
Mg1031     O1504   2.157   1_545  S
Mg1031     O1075   2.299       .  S
Mg1031     O1515   2.275   1_545  S
Mg1031     O1486   2.300   1_545  S
O1032     Mg1518   2.159   1_545  S
O1032     Mg1057   2.153       .  S
O1032      C1497   1.237       .  S
O1033      C1064   1.272       .  A
O1033     Mg1057   2.305       .  S
C1034      O1036   1.274       .  A
C1034      O1048   1.280       .  A
C1034      C1225   1.512       .  S
O1035      C1063   1.271   1_545  A
O1036     Mg1068   2.297       .  S
Mg1037     O1043   2.157       .  S
Mg1037     O1039   2.313       .  S
C1038      O1076   1.272       .  A
C1038      O1044   1.279       .  A
C1038      C1113   1.499       .  S
O1039      C1046   1.276       .  A
H1040      C1497   1.082       .  S
C1041      O1056   1.271   1_455  A
O1042      C1065   1.272       .  A
O1042     Mg1475   2.304       .  S
O1043     Mg1057   2.161       .  S
O1044     Mg1074   2.337       .  S
C1045      O1058   1.276       .  A
C1045      O1050   1.279       .  A
C1045      C1238   1.508       .  S
C1046      O1073   1.275       .  A
C1046      C1081   1.488       .  S
Mg1047     O1054   2.153       .  S
Mg1047     O1048   2.337       .  S
O1049      C1053   1.271       .  A
O1050     Mg1057   2.331       .  S
O1051      C1070   1.272       .  A
O1052      C1072   1.277       .  A
O1052     Mg1068   2.319       .  S
C1053      H1484   1.082       .  S
C1053      O1476   1.237       .  S
O1054     Mg1068   2.159       .  S
O1054      C1065   1.238       .  S
O1055     Mg1074   2.154       .  S
O1056     Mg1068   2.300       .  S
Mg1057     O1073   2.280       .  S
O1058     Mg1518   2.301   1_545  S
O1060     Mg1475   2.157       .  S
O1060     Mg1068   2.159       .  S
O1060      C1507   1.237       .  S
H1061      C1507   1.081       .  S
H1062      C1065   1.081       .  S
C1063      H1505   1.081       .  S
C1063      O1504   1.236       .  S
O1067     Mg1518   2.300   1_545  S
C1070      O1075   1.276       .  A
C1070      C1209   1.502       .  S
O1071      C1072   1.272       .  A
O1071     Mg1475   2.272       .  S
C1072      C1097   1.487       .  S
Mg1074     O1476   2.157       .  S
Mg1074     O1502   2.293       .  S
Mg1074     O1511   2.304       .  S
C1077      C1078   1.401       .  A
C1077      C1082   1.410       .  A
C1077      H1084   1.083       .  S
C1078      C1079   1.414       .  A
C1079      C1086   1.518       .  S
C1079      C1080   1.408       .  A
C1080      C1081   1.407       .  A
C1080      H1085   1.083       .  S
C1081      C1082   1.422       .  A
C1082      C1083   1.519       .  S
C1083      F1087   1.384       .  S
C1083      F1088   1.382       .  S
C1083      F1089   1.384       .  S
C1086      F1090   1.382       .  S
C1086      F1091   1.384       .  S
C1086      F1092   1.384       .  S
C1093      C1094   1.406       .  A
C1093      C1098   1.405       .  A
C1093      H1100   1.082       .  S
C1094      C1095   1.425       .  A
C1095      C1102   1.519       .  S
C1095      C1096   1.411       .  A
C1096      C1097   1.404       .  A
C1096      H1101   1.083       .  S
C1097      C1098   1.417       .  A
C1098      C1099   1.519       .  S
C1099      F1103   1.385       .  S
C1099      F1104   1.384       .  S
C1099      F1105   1.375       .  S
C1102      F1106   1.383       .  S
C1102      F1107   1.381       .  S
C1102      F1108   1.385       .  S
C1109      C1110   1.399       .  A
C1109      C1114   1.410       .  A
C1109      H1116   1.083       .  S
C1110      C1111   1.405       .  A
C1111      C1118   1.516       .  S
C1111      C1112   1.406       .  A
C1112      C1113   1.414       .  A
C1112      H1117   1.082       .  S
C1113      C1114   1.425       .  A
C1114      C1115   1.518       .  S
C1115      F1119   1.384       .  S
C1115      F1120   1.380       .  S
C1115      F1121   1.384       .  S
C1118      F1122   1.383       .  S
C1118      F1123   1.384       .  S
C1118      F1124   1.384       .  S
C1125      C1126   1.394       .  A
C1125      C1130   1.405       .  A
C1125      H1132   1.083       .  S
C1126      C1127   1.414       .  A
C1127      C1134   1.516       .  S
C1127      C1128   1.413       .  A
C1128      C1129   1.410       .  A
C1128      H1133   1.082       .  S
C1129      C1130   1.425       .  A
C1130      C1131   1.518       .  S
C1131      F1135   1.385   1_556  S
C1131      F1136   1.383   1_556  S
C1131      F1137   1.383       .  S
C1134      F1138   1.383       .  S
C1134      F1139   1.382       .  S
C1134      F1140   1.385       .  S
C1141      C1142   1.399       .  A
C1141      C1146   1.411       .  A
C1141      H1148   1.083       .  S
C1142      C1143   1.413       .  A
C1143      C1150   1.515       .  S
C1143      C1144   1.406       .  A
C1144      C1145   1.407       .  A
C1144      H1149   1.083       .  S
C1145      C1146   1.426       .  A
C1146      C1147   1.520       .  S
C1147      F1151   1.385       .  S
C1147      F1152   1.384       .  S
C1147      F1153   1.382       .  S
C1150      F1154   1.383       .  S
C1150      F1155   1.381   1_556  S
C1150      F1156   1.384       .  S
C1157      C1158   1.399       .  A
C1157      C1162   1.412       .  A
C1157      H1164   1.082       .  S
C1158      C1159   1.409       .  A
C1159      C1166   1.515       .  S
C1159      C1160   1.408       .  A
C1160      C1161   1.411       .  A
C1160      H1165   1.083       .  S
C1161      C1162   1.428       .  A
C1162      C1163   1.520       .  S
C1163      F1167   1.385       .  S
C1163      F1168   1.383   1_556  S
C1163      F1169   1.383       .  S
C1166      F1170   1.383       .  S
C1166      F1171   1.382       .  S
C1166      F1172   1.384       .  S
C1173      C1174   1.407       .  A
C1173      C1178   1.404       .  A
C1173      H1180   1.082       .  S
C1174      C1175   1.432       .  A
C1175      C1182   1.525       .  S
C1175      C1176   1.406       .  A
C1176      C1177   1.404       .  A
C1176      H1181   1.082       .  S
C1177      C1178   1.426       .  A
C1178      C1179   1.523       .  S
C1179      F1183   1.384       .  S
C1179      F1184   1.378       .  S
C1179      F1185   1.383       .  S
C1182      F1186   1.376       .  S
C1182      F1187   1.383       .  S
C1182      F1188   1.384       .  S
C1189      C1190   1.405       .  A
C1189      C1194   1.403       .  A
C1189      H1196   1.084       .  S
C1190      C1191   1.429       .  A
C1191      C1198   1.524       .  S
C1191      C1192   1.407       .  A
C1192      C1193   1.407       .  A
C1192      H1197   1.080       .  S
C1193      C1194   1.430       .  A
C1194      C1195   1.526       .  S
C1195      F1199   1.384       .  S
C1195      F1200   1.376       .  S
C1195      F1201   1.384       .  S
C1198      F1202   1.378       .  S
C1198      F1203   1.382       .  S
C1198      F1204   1.384       .  S
C1205      C1206   1.400       .  A
C1205      C1210   1.412       .  A
C1205      H1212   1.083       .  S
C1206      C1207   1.410       .  A
C1207      C1214   1.518       .  S
C1207      C1208   1.405       .  A
C1208      C1209   1.413       .  A
C1208      H1213   1.082       .  S
C1209      C1210   1.428       .  A
C1210      C1211   1.520       .  S
C1211      F1215   1.385       .  S
C1211      F1216   1.382       .  S
C1211      F1217   1.384       .  S
C1214      F1218   1.382       .  S
C1214      F1219   1.383       .  S
C1214      F1220   1.385       .  S
C1221      C1222   1.395       .  A
C1221      C1226   1.412       .  A
C1221      H1228   1.082       .  S
C1222      C1223   1.410       .  A
C1223      C1230   1.515       .  S
C1223      C1224   1.412       .  A
C1224      C1225   1.413       .  A
C1224      H1229   1.083       .  S
C1225      C1226   1.431       .  A
C1226      C1227   1.515       .  S
C1227      F1231   1.385       .  S
C1227      F1232   1.383       .  S
C1227      F1233   1.382       .  S
C1230      F1234   1.381       .  S
C1230      F1235   1.383       .  S
C1230      F1236   1.383       .  S
C1237      C1238   1.413       .  A
C1237      C1242   1.410       .  A
C1237      H1244   1.084       .  S
C1238      C1239   1.428       .  A
C1239      C1246   1.519       .  S
C1239      C1240   1.412       .  A
C1240      C1241   1.401       .  A
C1240      H1245   1.082       .  S
C1241      C1242   1.414       .  A
C1242      C1243   1.518       .  S
C1243      F1247   1.384       .  S
C1243      F1248   1.383       .  S
C1243      F1249   1.383       .  S
C1246      F1250   1.381       .  S
C1246      F1251   1.383       .  S
C1246      F1252   1.385       .  S
C1253      C1254   1.398       .  A
C1253      C1258   1.412       .  A
C1253      H1260   1.083       .  S
C1254      C1255   1.409       .  A
C1255      C1262   1.517       .  S
C1255      C1256   1.402       .  A
C1256      C1257   1.412       .  A
C1256      H1261   1.083       .  S
C1257      C1258   1.431       .  A
C1258      C1259   1.520       .  S
C1259      F1263   1.385       .  S
C1259      F1264   1.383       .  S
C1259      F1265   1.382       .  S
C1262      F1266   1.381       .  S
C1262      F1267   1.383   1_554  S
C1262      F1268   1.382       .  S
C1269      C1270   1.415       .  A
C1269      C1274   1.409       .  A
C1269      H1276   1.082       .  S
C1270      C1271   1.431       .  A
C1271      C1278   1.522       .  S
C1271      C1272   1.411       .  A
C1272      C1273   1.397       .  A
C1272      H1277   1.082       .  S
C1273      C1274   1.406       .  A
C1274      C1275   1.515       .  S
C1275      F1279   1.384       .  S
C1275      F1280   1.383       .  S
C1275      F1281   1.383       .  S
C1278      F1282   1.383       .  S
C1278      F1283   1.383       .  S
C1278      F1284   1.385       .  S
C1285      C1286   1.409       .  A
C1285      C1290   1.408       .  A
C1285      H1292   1.082       .  S
C1286      C1287   1.430       .  A
C1287      C1294   1.522       .  S
C1287      C1288   1.410       .  A
C1288      C1289   1.397       .  A
C1288      H1293   1.082       .  S
C1289      C1290   1.412       .  A
C1290      C1291   1.515       .  S
C1291      F1295   1.384       .  S
C1291      F1296   1.377       .  S
C1291      F1297   1.383       .  S
C1294      F1298   1.383       .  S
C1294      F1299   1.384   1_554  S
C1294      F1300   1.384       .  S
C1301      C1302   1.408       .  A
C1301      C1306   1.405       .  A
C1301      H1308   1.081       .  S
C1302      C1303   1.432       .  A
C1303      C1310   1.526       .  S
C1303      C1304   1.403       .  A
C1304      C1305   1.402       .  A
C1304      H1309   1.081       .  S
C1305      C1306   1.428       .  A
C1306      C1307   1.527       .  S
C1307      F1311   1.382       .  S
C1307      F1312   1.384       .  S
C1307      F1313   1.377       .  S
C1310      F1314   1.375       .  S
C1310      F1315   1.383       .  S
C1310      F1316   1.385       .  S
C1317      C1318   1.410       .  A
C1317      C1322   1.404       .  A
C1317      H1324   1.082       .  S
C1318      C1319   1.427       .  A
C1319      C1326   1.520       .  S
C1319      C1320   1.402       .  A
C1320      C1321   1.404       .  A
C1320      H1325   1.083       .  S
C1321      C1322   1.424       .  A
C1322      C1323   1.523       .  S
C1323      F1327   1.384       .  S
C1323      F1328   1.378       .  S
C1323      F1329   1.382       .  S
C1326      F1330   1.377       .  S
C1326      F1331   1.382       .  S
C1326      F1332   1.384       .  S
C1333      C1335   1.533       .  S
C1333      C1337   1.553       .  S
C1333      C1336   1.551       .  S
C1333      C1762   1.532       .  S
C1334      C1338   1.528       .  S
C1334      C1340   1.540       .  S
C1334      C1339   1.545       .  S
C1334      C1746   1.533   1_554  S
C1335      C1343   1.382       .  A
C1335      C1338   1.380       .  A
C1336      C1347   1.385       .  A
C1336      C1339   1.400       .  A
C1337      C1351   1.386       .  A
C1337      C1340   1.397       .  A
C1338      C1341   1.374       .  A
C1339      C1345   1.379       .  A
C1340      C1348   1.377       .  A
C1341      N1342   1.358       .  A
C1341      H1354   1.078   1_554  S
N1342      C1343   1.362       .  A
N1342      C1698   1.445       .  S
C1343      H1344   1.083       .  S
C1345      N1346   1.355       .  A
C1345      H1355   1.081   1_554  S
N1346      C1347   1.358       .  A
N1346      C1733   1.437       .  S
C1347      H1353   1.080       .  S
C1348      N1349   1.354       .  A
C1348      H1350   1.081   1_554  S
N1349      C1351   1.358       .  A
N1349      C1717   1.438       .  S
C1351      H1352   1.082       .  S
C1356      C1358   1.525       .  S
C1356      C1360   1.555       .  S
C1356      C1359   1.539       .  S
C1356      C1765   1.530       .  S
C1357      C1361   1.534       .  S
C1357      C1363   1.534       .  S
C1357      C1362   1.554       .  S
C1357      C1749   1.530       .  S
C1358      C1366   1.374       .  A
C1358      C1361   1.383       .  A
C1359      C1370   1.374       .  A
C1359      C1362   1.396       .  A
C1360      C1374   1.386       .  A
C1360      C1363   1.395       .  A
C1361      C1364   1.382       .  A
C1362      C1368   1.386       .  A
C1363      C1371   1.375       .  A
C1364      N1365   1.358       .  A
C1364      H1377   1.082       .  S
N1365      C1366   1.356       .  A
N1365      C1650   1.435       .  S
C1366      H1367   1.082       .  S
C1368      N1369   1.360       .  A
C1368      H1378   1.079       .  S
N1369      C1370   1.357       .  A
N1369      C1666   1.447       .  S
C1370      H1376   1.080       .  S
C1371      N1372   1.354       .  A
C1371      H1373   1.080       .  S
N1372      C1374   1.361       .  A
N1372      C1685   1.439       .  S
C1374      H1375   1.082       .  S
C1379      C1381   1.545   1_554  S
C1379      C1383   1.544   1_554  S
C1379      C1382   1.534   1_554  S
C1379      C1634   1.537       .  S
C1380      C1384   1.535       .  S
C1380      C1386   1.537       .  S
C1380      C1385   1.548       .  S
C1380      C1618   1.531       .  S
C1381      C1389   1.383       .  A
C1381      C1384   1.390       .  A
C1382      C1393   1.374       .  A
C1382      C1385   1.393       .  A
C1383      C1397   1.377       .  A
C1383      C1386   1.397       .  A
C1384      C1387   1.379       .  A
C1385      C1391   1.386       .  A
C1386      C1394   1.375       .  A
C1387      N1388   1.355       .  A
C1387      H1400   1.083       .  S
N1388      C1389   1.356       .  A
N1388      C1602   1.434       .  S
C1389      H1390   1.081   1_556  S
C1391      N1392   1.360       .  A
C1391      H1401   1.081       .  S
N1392      C1393   1.355       .  A
N1392      C1586   1.440       .  S
C1393      H1399   1.082   1_556  S
C1394      N1395   1.352       .  A
C1394      H1396   1.088       .  S
N1395      C1397   1.357       .  A
N1395      C1570   1.430       .  S
C1397      H1398   1.076   1_556  S
C1402      C1404   1.540       .  S
C1402      C1406   1.538       .  S
C1402      C1405   1.557       .  S
C1402      C1637   1.533       .  S
C1403      C1407   1.532       .  S
C1403      C1409   1.538       .  S
C1403      C1408   1.552       .  S
C1403      C1621   1.533       .  S
C1404      C1412   1.381       .  A
C1404      C1407   1.390       .  A
C1405      C1416   1.390       .  A
C1405      C1408   1.400       .  A
C1406      C1420   1.382       .  A
C1406      C1409   1.387       .  A
C1407      C1410   1.376       .  A
C1408      C1414   1.382       .  A
C1409      C1417   1.378       .  A
C1410      N1411   1.356       .  A
C1410      H1423   1.083       .  S
N1411      C1412   1.356       .  A
N1411      C1554   1.434       .  S
C1412      H1413   1.082       .  S
C1414      N1415   1.356       .  A
C1414      H1424   1.080       .  S
N1415      C1416   1.358       .  A
N1415      C1522   1.444       .  S
C1416      H1422   1.081       .  S
C1417      N1418   1.359       .  A
C1417      H1419   1.080       .  S
N1418      C1420   1.359       .  A
N1418      C1538   1.445       .  S
C1420      H1421   1.080       .  S
O1425     Mg1427   2.141       .  S
C1426      H1465   1.081       .  S
C1426      O1439   1.236       .  S
C1426      O1463   1.270       .  A
Mg1427     O1471   2.315   1_554  S
O1428     Mg1453   2.142       .  S
O1429      C1460   1.270       .  A
O1429     Mg1453   2.303       .  S
C1430      O1432   1.275       .  A
C1430      O1444   1.275       .  A
C1430      C1589   1.487       .  S
O1431      C1459   1.271       .  A
O1432     Mg1464   2.282       .  S
Mg1433     O1439   2.148       .  S
Mg1433     O1435   2.329   1_556  S
C1434      O1472   1.272       .  A
C1434      O1440   1.276       .  A
C1434      C1701   1.498       .  S
O1435      C1442   1.281       .  A
C1437      O1452   1.270       .  A
O1438      C1461   1.270       .  A
O1439     Mg1453   2.159   1_556  S
O1440     Mg1470   2.299   1_554  S
C1441      O1454   1.267       .  A
C1441      O1446   1.277       .  A
C1441      C1573   1.489       .  S
C1442      O1469   1.270       .  A
C1442      C1730   1.504       .  S
Mg1443     O1450   2.140       .  S
Mg1443     O1444   2.311   1_554  S
O1445      C1449   1.272   1_655  A
O1446     Mg1453   2.318   1_556  S
O1447      C1466   1.272       .  A
O1448      C1468   1.278       .  A
O1448     Mg1464   2.315   1_554  S
O1450     Mg1464   2.157   1_554  S
O1450      C1461   1.236       .  S
O1451     Mg1470   2.136       .  S
O1452     Mg1464   2.301       .  S
Mg1453     O1469   2.265       .  S
O1456     Mg1464   2.152       .  S
H1458      C1461   1.081       .  S
C1466      O1471   1.277       .  A
C1466      C1605   1.502       .  S
O1467      C1468   1.271       .  A
C1468      C1714   1.505       .  S
O1473     Mg1475   2.148       .  S
C1474      H1513   1.081       .  S
C1474      O1487   1.237       .  S
C1474      O1511   1.271       .  A
Mg1475     O1519   2.314       .  S
O1476     Mg1501   2.160       .  S
O1477      C1508   1.271       .  A
O1477     Mg1501   2.300       .  S
C1478      O1480   1.271       .  A
C1478      O1492   1.277       .  A
C1478      C1669   1.481       .  S
O1479      C1507   1.271       .  A
O1480     Mg1512   2.272       .  S
Mg1481     O1487   2.149       .  S
Mg1481     O1483   2.320       .  S
C1482      O1520   1.271       .  A
C1482      O1488   1.279       .  A
C1482      C1557   1.493       .  S
O1483      C1490   1.276       .  A
C1485      O1500   1.271   1_455  A
O1486      C1509   1.270       .  A
O1487     Mg1501   2.154       .  S
O1488     Mg1518   2.332       .  S
C1489      O1502   1.275       .  A
C1489      O1494   1.278       .  A
C1489      C1682   1.500       .  S
C1490      O1517   1.276       .  A
C1490      C1525   1.492       .  S
Mg1491     O1498   2.138       .  S
Mg1491     O1492   2.328       .  S
O1493      C1497   1.270   1_565  A
O1494     Mg1501   2.317       .  S
O1495      C1514   1.273       .  A
O1496      C1516   1.272       .  A
O1496     Mg1512   2.300       .  S
O1498     Mg1512   2.153       .  S
O1498      C1509   1.236       .  S
O1499     Mg1518   2.158       .  S
O1500     Mg1512   2.304       .  S
Mg1501     O1517   2.288       .  S
O1504     Mg1512   2.145       .  S
H1506      C1509   1.081       .  S
C1514      O1519   1.278       .  A
C1514      C1653   1.507       .  S
O1515      C1516   1.273       .  A
C1516      C1541   1.493       .  S
C1521      C1522   1.405       .  A
C1521      C1526   1.414       .  A
C1521      H1528   1.082       .  S
C1522      C1523   1.416       .  A
C1523      C1530   1.518       .  S
C1523      C1524   1.408       .  A
C1524      C1525   1.405       .  A
C1524      H1529   1.083       .  S
C1525      C1526   1.422       .  A
C1526      C1527   1.519       .  S
C1527      F1531   1.384       .  S
C1527      F1532   1.382       .  S
C1527      F1533   1.384       .  S
C1530      F1534   1.381       .  S
C1530      F1535   1.384       .  S
C1530      F1536   1.384       .  S
C1537      C1538   1.402       .  A
C1537      C1542   1.407       .  A
C1537      H1544   1.082       .  S
C1538      C1539   1.419       .  A
C1539      C1546   1.519       .  S
C1539      C1540   1.409       .  A
C1540      C1541   1.407       .  A
C1540      H1545   1.082       .  S
C1541      C1542   1.424       .  A
C1542      C1543   1.522       .  S
C1543      F1547   1.385       .  S
C1543      F1548   1.383       .  S
C1543      F1549   1.378       .  S
C1546      F1550   1.383       .  S
C1546      F1551   1.380       .  S
C1546      F1552   1.386       .  S
C1553      C1554   1.400       .  A
C1553      C1558   1.409       .  A
C1553      H1560   1.083       .  S
C1554      C1555   1.407       .  A
C1555      C1562   1.515       .  S
C1555      C1556   1.406       .  A
C1556      C1557   1.412       .  A
C1556      H1561   1.083       .  S
C1557      C1558   1.422       .  A
C1558      C1559   1.517       .  S
C1559      F1563   1.385       .  S
C1559      F1564   1.380       .  S
C1559      F1565   1.384       .  S
C1562      F1566   1.382       .  S
C1562      F1567   1.384       .  S
C1562      F1568   1.385       .  S
C1569      C1570   1.392       .  A
C1569      C1574   1.404       .  A
C1569      H1576   1.083       .  S
C1570      C1571   1.410       .  A
C1571      C1578   1.516       .  S
C1571      C1572   1.408       .  A
C1572      C1573   1.409       .  A
C1572      H1577   1.083       .  S
C1573      C1574   1.427       .  A
C1574      C1575   1.521       .  S
C1575      F1579   1.384       .  S
C1575      F1580   1.383   1_556  S
C1575      F1581   1.384       .  S
C1578      F1582   1.383       .  S
C1578      F1583   1.383       .  S
C1578      F1584   1.384       .  S
C1585      C1586   1.400       .  A
C1585      C1590   1.408       .  A
C1585      H1592   1.083       .  S
C1586      C1587   1.417       .  A
C1587      C1594   1.516       .  S
C1587      C1588   1.408       .  A
C1588      C1589   1.405       .  A
C1588      H1593   1.083   1_556  S
C1589      C1590   1.420       .  A
C1590      C1591   1.518       .  S
C1591      F1595   1.385       .  S
C1591      F1596   1.384       .  S
C1591      F1597   1.382       .  S
C1594      F1598   1.384       .  S
C1594      F1599   1.380   1_556  S
C1594      F1600   1.384   1_556  S
C1601      C1602   1.396       .  A
C1601      C1606   1.409       .  A
C1601      H1608   1.080       .  S
C1602      C1603   1.408       .  A
C1603      C1610   1.516       .  S
C1603      C1604   1.409       .  A
C1604      C1605   1.414       .  A
C1604      H1609   1.082       .  S
C1605      C1606   1.430       .  A
C1606      C1607   1.521       .  S
C1607      F1611   1.385       .  S
C1607      F1612   1.384   1_556  S
C1607      F1613   1.383       .  S
C1610      F1614   1.383       .  S
C1610      F1615   1.383       .  S
C1610      F1616   1.384       .  S
C1617      C1618   1.407       .  A
C1617      C1622   1.404       .  A
C1617      H1624   1.082       .  S
C1618      C1619   1.432       .  A
C1619      C1626   1.526       .  S
C1619      C1620   1.403       .  A
C1620      C1621   1.403       .  A
C1620      H1625   1.083       .  S
C1621      C1622   1.424       .  A
C1622      C1623   1.522       .  S
C1623      F1627   1.385       .  S
C1623      F1628   1.379       .  S
C1623      F1629   1.383       .  S
C1626      F1630   1.376       .  S
C1626      F1631   1.383       .  S
C1626      F1632   1.385       .  S
C1633      C1634   1.407       .  A
C1633      C1638   1.402       .  A
C1633      H1640   1.083       .  S
C1634      C1635   1.428       .  A
C1635      C1642   1.523       .  S
C1635      C1636   1.406       .  A
C1636      C1637   1.406       .  A
C1636      H1641   1.079       .  S
C1637      C1638   1.429       .  A
C1638      C1639   1.527       .  S
C1639      F1643   1.384       .  S
C1639      F1644   1.376       .  S
C1639      F1645   1.384       .  S
C1642      F1646   1.376       .  S
C1642      F1647   1.383       .  S
C1642      F1648   1.384       .  S
C1649      C1650   1.397       .  A
C1649      C1654   1.412       .  A
C1649      H1656   1.083       .  S
C1650      C1651   1.407       .  A
C1651      C1658   1.518       .  S
C1651      C1652   1.406       .  A
C1652      C1653   1.415       .  A
C1652      H1657   1.082       .  S
C1653      C1654   1.430       .  A
C1654      C1655   1.519       .  S
C1655      F1659   1.386       .  S
C1655      F1660   1.381       .  S
C1655      F1661   1.383       .  S
C1658      F1662   1.382       .  S
C1658      F1663   1.384       .  S
C1658      F1664   1.384       .  S
C1665      C1666   1.404       .  A
C1665      C1670   1.405       .  A
C1665      H1672   1.082       .  S
C1666      C1667   1.424       .  A
C1667      C1674   1.520       .  S
C1667      C1668   1.413       .  A
C1668      C1669   1.402       .  A
C1668      H1673   1.082       .  S
C1669      C1670   1.415       .  A
C1670      C1671   1.519       .  S
C1671      F1675   1.385       .  S
C1671      F1676   1.383       .  S
C1671      F1677   1.378       .  S
C1674      F1678   1.383       .  S
C1674      F1679   1.380       .  S
C1674      F1680   1.385       .  S
C1681      C1682   1.413       .  A
C1681      C1686   1.408       .  A
C1681      H1688   1.084       .  S
C1682      C1683   1.425       .  A
C1683      C1690   1.520       .  S
C1683      C1684   1.409       .  A
C1684      C1685   1.402       .  A
C1684      H1689   1.082       .  S
C1685      C1686   1.413       .  A
C1686      C1687   1.519       .  S
C1687      F1691   1.384       .  S
C1687      F1692   1.382       .  S
C1687      F1693   1.382       .  S
C1690      F1694   1.380       .  S
C1690      F1695   1.383       .  S
C1690      F1696   1.385       .  S
C1697      C1698   1.405       .  A
C1697      C1702   1.413       .  A
C1697      H1704   1.082       .  S
C1698      C1699   1.418       .  A
C1699      C1706   1.522   1_554  S
C1699      C1700   1.405       .  A
C1700      C1701   1.408       .  A
C1700      H1705   1.082   1_554  S
C1701      C1702   1.424       .  A
C1702      C1703   1.520       .  S
C1703      F1707   1.385       .  S
C1703      F1708   1.384       .  S
C1703      F1709   1.382       .  S
C1706      F1710   1.383   1_556  S
C1706      F1711   1.379       .  S
C1706      F1712   1.381       .  S
C1713      C1714   1.414       .  A
C1713      C1718   1.408       .  A
C1713      H1720   1.082       .  S
C1714      C1715   1.431       .  A
C1715      C1722   1.522       .  S
C1715      C1716   1.411       .  A
C1716      C1717   1.398       .  A
C1716      H1721   1.082       .  S
C1717      C1718   1.408       .  A
C1718      C1719   1.515       .  S
C1719      F1723   1.384       .  S
C1719      F1724   1.383       .  S
C1719      F1725   1.382   1_554  S
C1722      F1726   1.384       .  S
C1722      F1727   1.383       .  S
C1722      F1728   1.385       .  S
C1729      C1730   1.410       .  A
C1729      C1734   1.405       .  A
C1729      H1736   1.082       .  S
C1730      C1731   1.433       .  A
C1731      C1738   1.522       .  S
C1731      C1732   1.412       .  A
C1732      C1733   1.397       .  A
C1732      H1737   1.083       .  S
C1733      C1734   1.409       .  A
C1734      C1735   1.515       .  S
C1735      F1739   1.383       .  S
C1735      F1740   1.379       .  S
C1735      F1741   1.383       .  S
C1738      F1742   1.383       .  S
C1738      F1743   1.383   1_554  S
C1738      F1744   1.385       .  S
C1745      C1746   1.407       .  A
C1745      C1750   1.405       .  A
C1745      H1752   1.082       .  S
C1746      C1747   1.429       .  A
C1747      C1754   1.526       .  S
C1747      C1748   1.401       .  A
C1748      C1749   1.404       .  A
C1748      H1753   1.081       .  S
C1749      C1750   1.431       .  A
C1750      C1751   1.528       .  S
C1751      F1755   1.383       .  S
C1751      F1756   1.385       .  S
C1751      F1757   1.377       .  S
C1754      F1758   1.376       .  S
C1754      F1759   1.383       .  S
C1754      F1760   1.385       .  S
C1761      C1762   1.409       .  A
C1761      C1766   1.406       .  A
C1761      H1768   1.083       .  S
C1762      C1763   1.427       .  A
C1763      C1770   1.520       .  S
C1763      C1764   1.402       .  A
C1764      C1765   1.402       .  A
C1764      H1769   1.084       .  S
C1765      C1766   1.427       .  A
C1766      C1767   1.524       .  S
C1767      F1771   1.385       .  S
C1767      F1772   1.378       .  S
C1767      F1773   1.383       .  S
C1770      F1774   1.377       .  S
C1770      F1775   1.382       .  S
C1770      F1776   1.384       .  S
