geometry optimzed in LAMMPS
_audit_creation_date              2020-12-01 
_audit_creation_method            'lammps2cif' 
_symmetry_space_group_name_H-M    'P1' 
_symmetry_Int_Tables_number       1 
_symmetry_cell_setting            triclinic 
loop_ 
_symmetry_equiv_pos_as_xyz 
  x,y,z 
_cell_length_a                    50.74801276 
_cell_length_b                    50.93489123467976 
_cell_length_c                    17.250642351947945 
_cell_angle_alpha                 90.1506055753689 
_cell_angle_beta                  90.62903525838831 
_cell_angle_gamma                 120.10176587626451 
loop_ 
_atom_site_label 
_atom_site_type_symbol 
_atom_site_fract_x 
_atom_site_fract_y 
_atom_site_fract_z 
_atom_site_charge 
C1          C  0.33228754  0.16464009  0.13711609     0.30000
C2          C  0.33241138  0.16619634  0.97803653     0.30000
C3          C  0.35046296  0.15194700  0.09673317    -0.06200
C4          C  0.30107325  0.14793615  0.09668082    -0.08400
C5          C  0.34675290  0.19655935  0.10087765    -0.06800
C6          C  0.34977525  0.15211753  0.01608206    -0.06200
C7          C  0.30088659  0.14923698  0.01617787    -0.07000
C8          C  0.34643882  0.19741455  0.01988121    -0.06900
C9          C  0.36642982  0.13938193  0.99026911    -0.32200
N10         N  0.37768419  0.13213254  0.05301947     0.14300
C11         C  0.36893586  0.14045331  0.11811454    -0.32200
H12         H  0.37485446  0.13736331  0.17648506     0.16200
C13         C  0.27075300  0.13643815  0.99324749    -0.31200
N14         N  0.25296898  0.12581145  0.05686302     0.13000
C15         C  0.27130683  0.13331010  0.12055502    -0.31200
C16         C  0.35952717  0.22763119  0.99978815    -0.31500
N17         N  0.36837263  0.24489330  0.06555306     0.13500
H18         H  0.36275161  0.23660498  0.94174040     0.16100
C19         C  0.36129767  0.22622201  0.12727534    -0.31500
H20         H  0.36656027  0.23391239  0.18691438     0.16100
H21         H  0.26356884  0.12927980  0.17985055     0.16100
H22         H  0.36961583  0.13507434  0.93059941     0.16200
H23         H  0.26226903  0.13494536  0.93461249     0.16100
C24         C  0.33400941  0.16593582  0.47737148     0.30000
C25         C  0.33621699  0.16818484  0.63649735     0.30000
C26         C  0.35082082  0.15129374  0.51691877    -0.06200
C27         C  0.35084610  0.19788709  0.51429014    -0.07000
C28         C  0.30326386  0.15067745  0.51795054    -0.06800
C29         C  0.35155297  0.15213853  0.59775377    -0.06200
C30         C  0.35091947  0.19927905  0.59510022    -0.07000
C31         C  0.30412038  0.15203314  0.59852860    -0.06900
C32         C  0.36803955  0.13880919  0.62235046    -0.32200
N33         N  0.37797701  0.13075651  0.55880788     0.14300
C34         C  0.36796228  0.13852781  0.49442825    -0.32200
H35         H  0.37338416  0.13547261  0.43583325     0.16200
C36         C  0.36457984  0.22979454  0.61475333    -0.31200
N37         N  0.37501057  0.24655614  0.54925690     0.13000
C38         C  0.36682143  0.22724319  0.48785906    -0.31200
C39         C  0.27416925  0.13792444  0.62230119    -0.31500
N40         N  0.25576037  0.12740682  0.55865588     0.13500
H41         H  0.26611687  0.13537891  0.68112086     0.16100
C42         C  0.27318000  0.13510531  0.49457084    -0.31500
H43         H  0.26454085  0.12978761  0.43554907     0.16100
H44         H  0.37149624  0.23416504  0.42798568     0.16100
H45         H  0.37308529  0.13586290  0.68174633     0.16200
H46         H  0.36712702  0.23924386  0.67242314     0.16100
C47         C  0.16320226  0.32915162  0.02439518     0.30000
C48         C  0.16225077  0.33143950  0.86538354     0.30000
C49         C  0.14595867  0.34405312  0.98904120    -0.06200
C50         C  0.19437792  0.34812344  0.98622076    -0.07000
C51         C  0.14914143  0.29871659  0.98128468    -0.06800
C52         C  0.14533196  0.34532783  0.90826277    -0.06200
C53         C  0.19408061  0.34903253  0.90541378    -0.07000
C54         C  0.14866443  0.29975375  0.90094874    -0.06900
C55         C  0.13221929  0.36274946  0.89026435    -0.32200
N56         N  0.12391539  0.37086134  0.95695297     0.14300
C57         C  0.13398693  0.36109899  0.01719237    -0.32200
H58         H  0.13402048  0.36732075  0.07713426     0.16200
C59         C  0.22393118  0.36780489  0.88331365    -0.31200
N60         N  0.24188583  0.37820168  0.94788868     0.13000
C61         C  0.22401668  0.36698517  0.01091028    -0.31200
C62         C  0.13462334  0.27015785  0.87414115    -0.31500
N63         N  0.12691935  0.25143092  0.93622630     0.13500
H64         H  0.13029252  0.26277477  0.81412276     0.16100
C65         C  0.13527291  0.26870387  0.00186703    -0.31500
H66         H  0.13112333  0.26002826  0.06036246     0.16100
H67         H  0.23226699  0.37168491  0.07028558     0.16100
H68         H  0.12922719  0.36936206  0.83280126     0.16200
H69         H  0.23225099  0.37364473  0.82482423     0.16100
C70         C  0.16634388  0.33349157  0.36393578     0.30000
C71         C  0.16822687  0.33598149  0.52317191     0.30000
C72         C  0.15213381  0.35085252  0.40155937    -0.06200
C73         C  0.15136811  0.30320722  0.40558095    -0.07000
C74         C  0.19840388  0.35014015  0.40139646    -0.06800
C75         C  0.15259823  0.35178409  0.48245757    -0.06200
C76         C  0.15215507  0.30432917  0.48585224    -0.07000
C77         C  0.19950737  0.35182453  0.48259353    -0.06900
C78         C  0.14068418  0.36987050  0.50377472    -0.32200
N79         N  0.13326843  0.37988408  0.43865652     0.14300
C80         C  0.14088142  0.36900522  0.37618826    -0.32200
H81         H  0.13826466  0.37393043  0.31652959     0.16200
C82         C  0.13870428  0.27484134  0.51127011    -0.31200
N83         N  0.13048644  0.25627268  0.44817172     0.13000
C84         C  0.13794412  0.27329402  0.38331424    -0.31200
C85         C  0.22977534  0.37028037  0.50341814    -0.31500
N86         N  0.24663904  0.37841071  0.43813314     0.13500
H87         H  0.23899023  0.37741112  0.56146346     0.16100
C88         C  0.22785030  0.36705283  0.37565048    -0.31500
H89         H  0.23532923  0.37136207  0.31620843     0.16100
H90         H  0.13399218  0.26449170  0.32454399     0.16100
H91         H  0.13740959  0.37524781  0.56227208     0.16200
H92         H  0.13562785  0.26741201  0.57089379     0.16100
O93         O  0.03653542  0.48599091  0.06741244    -0.88300
C94         C  0.04362624  0.04080827  0.88636893     0.87700
Mg95       Mg  0.00201748  0.43864127  0.06924757     1.58100
O96         O  0.01221914  0.05221546  0.05530866    -0.88100
O97         O  0.05172399  0.02731618  0.13664061    -0.75400
C98         C  0.37237100  0.43505982  0.97605803     0.92700
O99         O  0.02128524  0.46859188  0.88696266    -0.75200
O100        O  0.38513400  0.41907923  0.97075954    -0.82700
Mg101      Mg  0.06241864  0.00197992  0.96206699     1.58000
C102        C  0.43566025  0.06065503  0.03762719     0.92700
O103        O  0.10822820  0.03566364  0.02365076    -0.81000
H104        H  0.01574091  0.06256096  0.16823197    -0.06300
C105        C  0.45067777  0.49784696  0.89006538     0.87600
O106        O  0.47131628  0.44879596  0.14583796    -0.75500
O107        O  0.04912708  0.03558929  0.95267964    -0.88300
O108        O  0.46257470  0.07265217  0.01165388    -0.81100
C109        C  0.05791042  0.12138619  0.95264738     0.92800
C110        C  0.12238292  0.06397348  0.04015225     0.92600
Mg111      Mg  0.43285357  0.49590924  0.05854494     1.58000
O112        O  0.38748081  0.46298289  0.99618427    -0.81000
O113        O  0.47387126  0.02890380  0.13391393    -0.75200
O114        O  0.07095020  0.10737378  0.97917800    -0.81100
O115        O  0.07608353  0.46631457  0.96870988    -0.82800
O116        O  0.42326830  0.38968439  0.03984350    -0.81100
C117        C  0.50128122  0.04885566  0.12058301     0.87100
O118        O  0.44549522  0.46166699  0.06771116    -0.88200
O119        O  0.45867938  0.01131173  0.95317112    -0.88400
O120        O  0.44282621  0.47003519  0.88344841    -0.75400
Mg121      Mg  0.05916153  0.06508217  0.05145373     1.58000
O122        O  0.02914737  0.10816832  0.94401171    -0.82800
H123        H  0.04356006  0.48722349  0.18193808    -0.06500
O124        O  0.48253981  0.44515049  0.96436362    -0.88100
H125        H  0.47952808  0.43513892  0.85132002    -0.06300
H126        H  0.43913711  0.45840429  0.18219406    -0.06500
C127        C  0.99373918  0.44871138  0.89939168     0.87000
C128        C  0.04415476  0.99954017  0.13046418     0.87600
C129        C  0.45112354  0.45612763  0.13356440     0.87700
H130        H  0.45126980  0.01030275  0.83885014    -0.06500
O131        O  0.02331037  0.04784146  0.87301825    -0.75500
Mg132      Mg  0.43517680  0.43229314  0.96831719     1.58000
H133        H  0.05572830  0.03836219  0.83824656    -0.06500
C134        C  0.06077318  0.43795067  0.98084374     0.92700
O135        O  0.46536097  0.38860189  0.07123539    -0.82700
C136        C  0.43651388  0.37539004  0.06306509     0.92700
O137        O  0.10860868  0.07884225  0.04751335    -0.82700
Mg138      Mg  0.49298963  0.05837281  0.94934926     1.58200
O139        O  0.03362283  0.42515238  0.00641754    -0.81100
O140        O  0.41991315  0.03235057  0.05100252    -0.82800
O141        O  0.48932763  0.04142382  0.43455106    -0.88300
C142        C  0.04743441  0.04784974  0.60712550     0.87700
Mg143      Mg  0.44183610  0.00843250  0.43644902     1.58100
O144        O  0.05352851  0.01524737  0.43298852    -0.88100
O145        O  0.02859169  0.05605362  0.35956122    -0.75400
C146        C  0.43438937  0.37672513  0.51545773     0.92700
O147        O  0.47586139  0.02705306  0.61576144    -0.75200
O148        O  0.41937270  0.39040980  0.52350392    -0.82700
Mg149      Mg  0.00797560  0.06725881  0.53987847     1.58000
C150        C  0.06052447  0.43737966  0.44420290     0.92700
O151        O  0.04012909  0.11120565  0.47753556    -0.81000
H152        H  0.06104767  0.01746425  0.31904077    -0.06300
C153        C  0.50153473  0.45412679  0.59934905     0.87600
O154        O  0.44908904  0.47690672  0.35439218    -0.75500
O155        O  0.04112177  0.05343131  0.54215795    -0.88300
O156        O  0.07317242  0.46469874  0.46873928    -0.81100
C157        C  0.12546375  0.06005495  0.53168640     0.92800
C158        C  0.06786680  0.12612399  0.45776640     0.92600
Mg159      Mg  0.49547102  0.43565278  0.43032621     1.58000
O160        O  0.46203576  0.39080372  0.49291126    -0.81000
O161        O  0.02789448  0.47618752  0.35515723    -0.75200
O162        O  0.11171065  0.07336958  0.50570765    -0.81100
O163        O  0.47331525  0.08244700  0.53895518    -0.82800
O164        O  0.39067990  0.43056804  0.46303411    -0.81100
C165        C  0.04835505  0.50364104  0.36748769     0.87100
O166        O  0.46175317  0.44952051  0.42660396    -0.88200
O167        O  0.01360766  0.46207414  0.53541350    -0.88400
O168        O  0.47396762  0.44685950  0.60940759    -0.75400
Mg169      Mg  0.06807461  0.06274540  0.43941352     1.58000
O170        O  0.11159653  0.03137488  0.54008431    -0.82800
H171        H  0.48740065  0.04849789  0.32116661    -0.06500
O172        O  0.44983287  0.48841716  0.53731384    -0.88100
H173        H  0.44257581  0.48575800  0.65145201    -0.06300
H174        H  0.45631658  0.44388837  0.31170905    -0.06500
C175        C  0.45522524  0.99973137  0.60309070     0.87000
C176        C  0.00108100  0.04888754  0.37023566     0.87600
C177        C  0.45549765  0.45592154  0.36248428     0.87700
H178        H  0.01503135  0.45413656  0.64839327    -0.06500
O179        O  0.05342387  0.02675474  0.61758767    -0.75500
Mg180      Mg  0.43475157  0.44073883  0.52938515     1.58000
H181        H  0.04661831  0.06043814  0.65671494    -0.06500
C182        C  0.44453898  0.06778529  0.53062306     0.92700
O183        O  0.39197430  0.47382366  0.43713469    -0.82700
C184        C  0.37730150  0.44519033  0.44355803     0.92700
O185        O  0.08329118  0.11301781  0.44662843    -0.82700
Mg186      Mg  0.06118988  0.49581527  0.53623069     1.58200
O187        O  0.43034237  0.04035951  0.50629396    -0.81100
O188        O  0.03179319  0.42150518  0.43326915    -0.82800
C189        C  0.08566613  0.20812718  0.47915207    -0.09200
C190        C  0.11497714  0.22387300  0.44941577     0.07000
C191        C  0.12854746  0.20776299  0.42044915    -0.02900
C192        C  0.11255731  0.17601029  0.42150779    -0.07400
C193        C  0.08290762  0.15976447  0.45157965     0.06200
C194        C  0.06949575  0.17647587  0.48067259    -0.02400
Br195      Br  0.03004801  0.15882707  0.52721231    -0.02100
H196        H  0.07536363  0.22073347  0.50149130     0.10100
H197        H  0.12367442  0.16407637  0.39999049     0.08100
Br198      Br  0.16956868  0.22846658  0.38376886    -0.02500
C199        C  0.32767690  0.39653746  0.44082925    -0.09200
C200        C  0.34351730  0.42836043  0.43306568     0.07000
C201        C  0.32625034  0.44314396  0.42248552    -0.02900
C202        C  0.29439863  0.42627665  0.42393848    -0.07400
C203        C  0.27916498  0.39497050  0.43518166     0.06200
C204        C  0.29586752  0.37994791  0.44170852    -0.02400
Br205      Br  0.27585462  0.33673964  0.45227132    -0.02100
H206        H  0.33998186  0.38440220  0.44796821     0.10100
H207        H  0.28131331  0.43763531  0.41716949     0.08100
Br208      Br  0.34362373  0.48607544  0.40735900    -0.02500
C209        C  0.10668378  0.43510413  0.48191847    -0.09200
C210        C  0.08014809  0.42360681  0.43529538     0.07000
C211        C  0.07279181  0.39875437  0.38545021    -0.02900
C212        C  0.09097040  0.38520340  0.38609050    -0.07400
C213        C  0.11659438  0.39589621  0.43554804     0.06200
C214        C  0.12481537  0.42162115  0.48229602    -0.02400
Br215      Br  0.16123469  0.44024893  0.54509765    -0.02100
H216        H  0.11316502  0.45442882  0.51991527     0.10100
H217        H  0.08470721  0.36573937  0.34884533     0.08100
Br218      Br  0.03913189  0.38291999  0.31328003    -0.02500
C219        C  0.10476472  0.17081700  0.97911343    -0.09200
C220        C  0.07687101  0.15455223  0.93846250     0.07000
C221        C  0.06713340  0.17088498  0.89128180    -0.02900
C222        C  0.08440044  0.20268603  0.88918182    -0.07400
C223        C  0.11125396  0.21877888  0.93363419     0.06200
C224        C  0.12179687  0.20246368  0.97723500    -0.02400
Br225      Br  0.15969696  0.22209528  0.03400143    -0.02100
H226        H  0.11303947  0.15897896  0.01500364     0.10100
H227        H  0.07638053  0.21502514  0.85444825     0.08100
Br228      Br  0.03095873  0.15147802  0.82742276    -0.02500
C229        C  0.28961602  0.38008047  0.91511900    -0.09200
C230        C  0.27460801  0.39380198  0.94951401     0.07000
C231        C  0.29181456  0.42154662  0.98920062    -0.02900
C232        C  0.32354832  0.43494672  0.99480635    -0.07400
C233        C  0.33881880  0.42083573  0.96258553     0.06200
C234        C  0.32128758  0.39303031  0.92171547    -0.02400
Br235      Br  0.33850336  0.37120488  0.87291573    -0.02100
H236        H  0.27637718  0.35859581  0.88484795     0.10100
H237        H  0.33620523  0.45618956  0.02644299     0.08100
Br238      Br  0.27284738  0.44203248  0.03561279    -0.02500
C239        C  0.11260531  0.40957092  0.90795234    -0.09200
C240        C  0.10744999  0.38712888  0.96262689     0.07000
C241        C  0.08521864  0.38038538  0.02021743    -0.02900
C242        C  0.06982016  0.39668262  0.02330923    -0.07400
C243        C  0.07565257  0.41960719  0.96992286     0.06200
C244        C  0.09690641  0.42562063  0.91083725    -0.02400
Br245      Br  0.10429088  0.45423967  0.82993356    -0.02100
H246        H  0.12911596  0.41483119  0.86278667     0.10100
H247        H  0.05340027  0.39164280  0.06872726     0.08100
Br248      Br  0.07283723  0.34823786  0.09411454    -0.02500
C249        C  0.14076128  0.33049216  0.64907725    -0.09200
C250        C  0.16718094  0.33457967  0.61198950     0.07000
C251        C  0.18738254  0.32925593  0.65775746    -0.02900
C252        C  0.18539391  0.32881036  0.73859401    -0.07400
C253        C  0.16220132  0.33108857  0.77648767     0.06200
C254        C  0.13744924  0.32726460  0.72961674    -0.02400
Br255      Br  0.09657686  0.31012752  0.76701348    -0.02100
H256        H  0.12134618  0.32717340  0.61478079     0.10100
H257        H  0.20113452  0.32471100  0.77193573     0.08100
Br258      Br  0.21381186  0.31595684  0.61648821    -0.02500
C259        C  0.13705196  0.32231010  0.15316474    -0.09200
C260        C  0.16262622  0.32626056  0.11250253     0.07000
C261        C  0.18460459  0.32283534  0.15533276    -0.02900
C262        C  0.18569729  0.32573277  0.23607204    -0.07400
C263        C  0.16379816  0.32955960  0.27602044     0.06200
C264        C  0.13693250  0.32277040  0.23404186    -0.02400
Br265      Br  0.09794583  0.30874466  0.28114200    -0.02100
H266        H  0.11646000  0.31750325  0.12210972     0.10100
H267        H  0.20271511  0.32311980  0.26780045     0.08100
Br268      Br  0.20981625  0.30874387  0.11020176    -0.02500
C269        C  0.38297121  0.08614317  0.58597972    -0.09200
C270        C  0.39566605  0.11590648  0.55853227     0.07000
C271        C  0.42489309  0.13007728  0.52644160    -0.02900
C272        C  0.44059410  0.11418514  0.51998113    -0.07400
C273        C  0.42758997  0.08397274  0.54468343     0.06200
C274        C  0.39858633  0.07003519  0.57896734    -0.02400
Br275      Br  0.37968573  0.02959653  0.61911147    -0.02100
H276        H  0.36051046  0.07521270  0.61111365     0.10100
H277        H  0.46273422  0.12524414  0.49320759     0.08100
Br278      Br  0.44431245  0.17125171  0.49161857    -0.02500
C279        C  0.37837305  0.29536854  0.57974941    -0.09200
C280        C  0.39075102  0.27920606  0.54457461     0.07000
C281        C  0.41801441  0.29535710  0.50309852    -0.02900
C282        C  0.43192217  0.32690714  0.49591603    -0.07400
C283        C  0.41922409  0.34328300  0.52916701     0.06200
C284        C  0.39208716  0.32697399  0.57224810    -0.02400
Br285      Br  0.37246215  0.34589174  0.62395221    -0.02100
H286        H  0.35748477  0.28315476  0.61197603     0.10100
H287        H  0.45268794  0.33860629  0.46298662     0.08100
Br288      Br  0.43804696  0.27566673  0.45791039    -0.02500
C289        C  0.20695247  0.12610529  0.55846527    -0.09200
C290        C  0.22317997  0.11062247  0.55870542     0.07000
C291        C  0.20736026  0.07881849  0.55624657    -0.02900
C292        C  0.17555230  0.06281337  0.55097351    -0.07400
C293        C  0.15888596  0.07811761  0.54749597     0.06200
C294        C  0.17508965  0.11031425  0.55315531    -0.02400
Br295      Br  0.15584684  0.13461277  0.55500280    -0.02100
H296        H  0.21928045  0.15067256  0.56125567     0.10100
H297        H  0.16396311  0.03828554  0.54693053     0.08100
Br298      Br  0.22866741  0.05663852  0.55788957    -0.02500
C299        C  0.38967397  0.06583216  0.03792048    -0.09200
C300        C  0.42145911  0.07971637  0.04734686     0.07000
C301        C  0.43864044  0.11149664  0.06054457    -0.02900
C302        C  0.42386216  0.12846375  0.06289003    -0.07400
C303        C  0.39234169  0.11443466  0.05139935     0.06200
C304        C  0.37518250  0.08294199  0.03942065    -0.02400
Br305      Br  0.33183045  0.06252837  0.02499474    -0.02100
H306        H  0.37601358  0.04162282  0.02719788     0.10100
H307        H  0.43695187  0.15273438  0.07308664     0.08100
Br308      Br  0.48197089  0.13316851  0.07810027    -0.02500
C309        C  0.38997412  0.32607826  0.03152741    -0.09200
C310        C  0.41767830  0.34192327  0.07337442     0.07000
C311        C  0.42748231  0.32499658  0.11774351    -0.02900
C312        C  0.41073784  0.29317748  0.11535857    -0.07400
C313        C  0.38411773  0.27756050  0.06973598     0.06200
C314        C  0.37326113  0.29434706  0.02958093    -0.02400
Br315      Br  0.33509901  0.27519117  0.97398794    -0.02100
H316        H  0.38154174  0.33836846  0.99805594     0.10100
H317        H  0.41883372  0.28047466  0.14824780     0.08100
Br318      Br  0.46277770  0.34361669  0.18470204    -0.02500
C319        C  0.17072975  0.06719070  0.08647846    -0.09200
C320        C  0.15598982  0.08048674  0.04741471     0.07000
C321        C  0.17379774  0.10906284  0.01226980    -0.02900
C322        C  0.20555064  0.12366925  0.01685013    -0.07400
C323        C  0.22026288  0.11056483  0.05635154     0.06200
C324        C  0.20261278  0.08207502  0.09164701    -0.02400
Br325      Br  0.22090253  0.06162855  0.14273176    -0.02100
H326        H  0.15741459  0.04511939  0.11278704     0.10100
H327        H  0.21896810  0.14535921  0.98883680     0.08100
Br328      Br  0.15638693  0.12837388  0.95171590    -0.02500
C329        C  0.35931569  0.18887231  0.85180416    -0.09200
C330        C  0.33370730  0.16573274  0.88943568     0.07000
C331        C  0.31445850  0.13958337  0.84418778    -0.02900
C332        C  0.31560365  0.14120168  0.76335235    -0.07400
C333        C  0.33726924  0.16748698  0.72518290     0.06200
C334        C  0.36202537  0.18906545  0.77103248    -0.02400
Br335      Br  0.40238455  0.21373153  0.73134150    -0.02100
H336        H  0.37859029  0.20552657  0.88556193     0.10100
H337        H  0.30054316  0.12097441  0.73020972     0.08100
Br338      Br  0.29079969  0.09947124  0.88606003    -0.02500
C339        C  0.32444212  0.18338874  0.26570005    -0.09200
C340        C  0.33011799  0.16278246  0.22528018     0.07000
C341        C  0.32691895  0.13760951  0.26769817    -0.02900
C342        C  0.32891624  0.13929393  0.34867813    -0.07400
C343        C  0.33075553  0.16418816  0.38912819     0.06200
C344        C  0.32329580  0.18335929  0.34646976    -0.02400
Br345      Br  0.30590836  0.20572821  0.39178924    -0.02100
H346        H  0.31893431  0.19840408  0.23434017     0.10100
H347        H  0.32655793  0.11990149  0.37998767     0.08100
Br348      Br  0.31265481  0.09815135  0.22207529    -0.02500
C349        C  0.33228494  0.66464311  0.13712824     0.30000
C350        C  0.33241434  0.66619982  0.97804888     0.30000
C351        C  0.35046021  0.65194794  0.09675123    -0.06200
C352        C  0.30107187  0.64794074  0.09668646    -0.08400
C353        C  0.34675307  0.69656294  0.10088970    -0.06800
C354        C  0.34977509  0.65211879  0.01609977    -0.06200
C355        C  0.30088827  0.64924228  0.01618384    -0.07000
C356        C  0.34644292  0.69741817  0.01989344    -0.06900
C357        C  0.36642751  0.63938008  0.99029195    -0.32200
N358        N  0.37767816  0.63212804  0.05304529     0.14300
C359        C  0.36892947  0.64045030  0.11813771    -0.32200
H360        H  0.37484534  0.63735882  0.17650981     0.16200
C361        C  0.27075556  0.63644257  0.99324508    -0.31200
N362        N  0.25296892  0.62581447  0.05685551     0.13000
C363        C  0.27130426  0.63331305  0.12055264    -0.31200
C364        C  0.35953411  0.72763492  0.99979923    -0.31500
N365        N  0.36837451  0.74489795  0.06556316     0.13500
H366        H  0.36276393  0.73660781  0.94175000     0.16100
C367        C  0.36129540  0.72622597  0.12728636    -0.31500
H368        H  0.36655285  0.73391598  0.18692644     0.16100
H369        H  0.26356373  0.62928102  0.17984593     0.16100
H370        H  0.36961461  0.63507229  0.93062331     0.16200
H371        H  0.26227382  0.63494953  0.93460750     0.16100
C372        C  0.33399992  0.66593799  0.47738394     0.30000
C373        C  0.33620843  0.66819033  0.63650943     0.30000
C374        C  0.35080599  0.65129088  0.51693492    -0.06200
C375        C  0.35084229  0.69789011  0.51429833    -0.07000
C376        C  0.30325433  0.65068563  0.51796431    -0.06800
C377        C  0.35153847  0.65213774  0.59776952    -0.06200
C378        C  0.35091589  0.69928384  0.59510812    -0.07000
C379        C  0.30411139  0.65204279  0.59854248    -0.06900
C380        C  0.36802022  0.63880413  0.62237193    -0.32200
N381        N  0.37795465  0.63074636  0.55883309     0.14300
C382        C  0.36794280  0.63851893  0.49444996    -0.32200
H383        H  0.37336469  0.63546173  0.43585667     0.16200
C384        C  0.36457958  0.72979997  0.61475731    -0.31200
N385        N  0.37501226  0.74656011  0.54925924     0.13000
C386        C  0.36682129  0.72724575  0.48786378    -0.31200
C387        C  0.27416034  0.63793450  0.62231656    -0.31500
N388        N  0.25575081  0.62741598  0.55867215     0.13500
H389        H  0.26610859  0.63538804  0.68113709     0.16100
C390        C  0.27317016  0.63511329  0.49458640    -0.31500
H391        H  0.26453064  0.62979280  0.43556536     0.16100
H392        H  0.37149685  0.73416645  0.42798975     0.16100
H393        H  0.37306581  0.63585937  0.68176920     0.16200
H394        H  0.36712722  0.73925060  0.67242572     0.16100
C395        C  0.16321070  0.82915559  0.02437682     0.30000
C396        C  0.16225986  0.83144493  0.86536532     0.30000
C397        C  0.14596368  0.84405377  0.98902367    -0.06200
C398        C  0.19438592  0.84813139  0.98620390    -0.07000
C399        C  0.14915338  0.79872101  0.98126411    -0.06800
C400        C  0.14533714  0.84532933  0.90824487    -0.06200
C401        C  0.19408901  0.84904098  0.90539731    -0.07000
C402        C  0.14867659  0.79975916  0.90092836    -0.06900
C403        C  0.13222227  0.86274940  0.89024880    -0.32200
N404        N  0.12391706  0.87085926  0.95693878     0.14300
C405        C  0.13399024  0.86109786  0.01717646    -0.32200
H406        H  0.13402405  0.86731965  0.07711842     0.16200
C407        C  0.22393928  0.86781581  0.88329844    -0.31200
N408        N  0.24189316  0.87821382  0.94787433     0.13000
C409        C  0.22402395  0.86699570  0.01089505    -0.31200
C410        C  0.13463438  0.77016364  0.87411763    -0.31500
N411        N  0.12692951  0.75143565  0.93620049     0.13500
H412        H  0.13030208  0.76278145  0.81409863     0.16100
C413        C  0.13528386  0.76870771  0.00184317    -0.31500
H414        H  0.13113288  0.76003105  0.06033757     0.16100
H415        H  0.23227402  0.87169547  0.07027060     0.16100
H416        H  0.12923013  0.86936281  0.83278675     0.16200
H417        H  0.23225951  0.87365567  0.82480938     0.16100
C418        C  0.16636212  0.83349815  0.36391844     0.30000
C419        C  0.16824509  0.83598428  0.52315480     0.30000
C420        C  0.15215854  0.85086447  0.40154677    -0.06200
C421        C  0.15138062  0.80321266  0.40555969    -0.07000
C422        C  0.19842218  0.85014007  0.40137903    -0.06800
C423        C  0.15262193  0.85179281  0.48244421    -0.06200
C424        C  0.15216784  0.80433292  0.48583112    -0.07000
C425        C  0.19952601  0.85182283  0.48257663    -0.06900
C426        C  0.14070754  0.86987791  0.50376806    -0.32200
N427        N  0.13329560  0.87989776  0.43865486     0.14300
C428        C  0.14090959  0.86902105  0.37618265    -0.32200
H429        H  0.13829467  0.87394895  0.31652516     0.16200
C430        C  0.13871170  0.77484440  0.51124537    -0.31200
N431        N  0.13048989  0.75627659  0.44814467     0.13000
C432        C  0.13795080  0.77329932  0.38328920    -0.31200
C433        C  0.22979435  0.87027830  0.50339987    -0.31500
N434        N  0.24665758  0.87840945  0.43811389     0.13500
H435        H  0.23900966  0.87741002  0.56144446     0.16100
C436        C  0.22786834  0.86705317  0.37563201    -0.31500
H437        H  0.23534664  0.87136526  0.31618968     0.16100
H438        H  0.13399757  0.76449786  0.32451796     0.16100
H439        H  0.13742749  0.87524715  0.56226827     0.16200
H440        H  0.13563452  0.76741392  0.57086809     0.16100
O441        O  0.03653489  0.98598585  0.06744107    -0.88300
C442        C  0.04362338  0.54081111  0.88633734     0.87700
Mg443      Mg  0.00201585  0.93863624  0.06927104     1.58100
O444        O  0.01222133  0.55222185  0.05528184    -0.88100
O445        O  0.05172645  0.52732234  0.13660864    -0.75400
C446        C  0.37237694  0.93506784  0.97607340     0.92700
O447        O  0.02128813  0.96858970  0.88698940    -0.75200
O448        O  0.38513986  0.91908713  0.97077919    -0.82700
Mg449      Mg  0.06241720  0.50198301  0.96203509     1.58000
C450        C  0.43565310  0.56064912  0.03761433     0.92700
O451        O  0.10822746  0.53566627  0.02361483    -0.81000
H452        H  0.01574646  0.56256814  0.16820516    -0.06300
C453        C  0.45068645  0.99785241  0.89009357     0.87600
O454        O  0.47131728  0.94880322  0.14587975    -0.75500
O455        O  0.04912549  0.53559243  0.95264713    -0.88300
O456        O  0.46256654  0.57264716  0.01163151    -0.81100
C457        C  0.05791133  0.62139073  0.95261245     0.92800
C458        C  0.12238315  0.56397620  0.04011418     0.92600
Mg459      Mg  0.43285840  0.99591563  0.05856892     1.58000
O460        O  0.38748663  0.96299063  0.99620195    -0.81000
O461        O  0.47386636  0.52889792  0.13388693    -0.75200
O462        O  0.07095050  0.60737703  0.97913832    -0.81100
O463        O  0.07608438  0.96631085  0.96873867    -0.82800
O464        O  0.42327051  0.88969175  0.03987473    -0.81100
C465        C  0.50127547  0.54885047  0.12055132     0.87100
O466        O  0.44549805  0.96167290  0.06774262    -0.88200
O467        O  0.45867173  0.51130720  0.95314185    -0.88400
O468        O  0.44283458  0.97004072  0.88347556    -0.75400
Mg469      Mg  0.05916300  0.56508705  0.05141871     1.58000
O470        O  0.02914792  0.60817431  0.94398305    -0.82800
H471        H  0.04355766  0.98721691  0.18196714    -0.06500
O472        O  0.48254467  0.94515534  0.96440833    -0.88100
H473        H  0.47953536  0.93514183  0.85136656    -0.06300
H474        H  0.43913658  0.95841133  0.18222393    -0.06500
C475        C  0.99374169  0.94870936  0.89941450     0.87000
C476        C  0.04415655  0.49954611  0.13043430     0.87600
C477        C  0.45112449  0.95613419  0.13359850     0.87700
H478        H  0.45125954  0.51029649  0.83882172    -0.06500
O479        O  0.02330809  0.54784546  0.87299031    -0.75500
Mg480      Mg  0.43518218  0.93229962  0.96834891     1.58000
H481        H  0.05572401  0.53836415  0.83821284    -0.06500
C482        C  0.06077346  0.93794654  0.98086734     0.92700
O483        O  0.46535992  0.88860586  0.07129212    -0.82700
C484        C  0.43651318  0.87539606  0.06310645     0.92700
O485        O  0.10860988  0.57884602  0.04747280    -0.82700
Mg486      Mg  0.49298273  0.55836921  0.94931833     1.58200
O487        O  0.03362303  0.92514798  0.00644196    -0.81100
O488        O  0.41990714  0.53234434  0.05098883    -0.82800
O489        O  0.48930960  0.54142048  0.43460095    -0.88300
C490        C  0.04742685  0.54784985  0.60712962     0.87700
Mg491      Mg  0.44181831  0.50842821  0.43649465     1.58100
O492        O  0.05351789  0.51524905  0.43298683    -0.88100
O493        O  0.02858433  0.55605877  0.35956612    -0.75400
C494        C  0.43440267  0.87673032  0.51545116     0.92700
O495        O  0.47584281  0.52704138  0.61580744    -0.75200
O496        O  0.41938835  0.89041750  0.52349438    -0.82700
Mg497      Mg  0.00797005  0.56726337  0.53989075     1.58000
C498        C  0.06054321  0.93738410  0.44421502     0.92700
O499        O  0.04012670  0.61121163  0.47755656    -0.81000
H500        H  0.06103739  0.51746755  0.31903897    -0.06300
C501        C  0.50155069  0.95413569  0.59933473     0.87600
O502        O  0.44910570  0.97690670  0.35435976    -0.75500
O503        O  0.04111457  0.55343367  0.54216415    -0.88300
O504        O  0.07318720  0.96470187  0.46875797    -0.81100
C505        C  0.12545409  0.56005373  0.53168793     0.92800
C506        C  0.06786243  0.62612801  0.45776953     0.92600
Mg507      Mg  0.49548670  0.93565511  0.43031633     1.58000
O508        O  0.46204942  0.89080683  0.49290640    -0.81000
O509        O  0.02790694  0.97618382  0.35516332    -0.75200
O510        O  0.11170088  0.57336841  0.50571023    -0.81100
O511        O  0.47329566  0.58243830  0.53902022    -0.82800
O512        O  0.39069877  0.93057459  0.46300554    -0.81100
C513        C  0.04836614  0.00363815  0.36749083     0.87100
O514        O  0.46177012  0.94952397  0.42658464    -0.88200
O515        O  0.01362088  0.96207308  0.53542101    -0.88400
O516        O  0.47398385  0.94686958  0.60939182    -0.75400
Mg517      Mg  0.06806614  0.56274723  0.43941587     1.58000
O518        O  0.11158733  0.53137315  0.54007924    -0.82800
H519        H  0.48738220  0.54849838  0.32121905    -0.06500
O520        O  0.44985083  0.98842572  0.53727738    -0.88100
H521        H  0.44259401  0.98577150  0.65141532    -0.06300
H522        H  0.45633229  0.94388568  0.31169168    -0.06500
C523        C  0.45520701  0.49972004  0.60313030     0.87000
C524        C  0.00107458  0.54889499  0.37024449     0.87600
C525        C  0.45551410  0.95592174  0.36246148     0.87700
H526        H  0.01504625  0.95413962  0.64840283    -0.06500
O527        O  0.05341507  0.52675368  0.61758623    -0.75500
Mg528      Mg  0.43476876  0.94074695  0.52936320     1.58000
H529        H  0.04661169  0.56043743  0.65672212    -0.06500
C530        C  0.44451940  0.56777668  0.53068541     0.92700
O531        O  0.39199153  0.97382855  0.43709382    -0.82700
C532        C  0.37731961  0.94519539  0.44352300     0.92700
O533        O  0.08328496  0.61302022  0.44662601    -0.82700
Mg534      Mg  0.06120123  0.99581657  0.53623828     1.58200
O535        O  0.43032307  0.54035139  0.50635262    -0.81100
O536        O  0.03181235  0.92150585  0.43327490    -0.82800
C537        C  0.08566373  0.70813363  0.47911141    -0.09200
C538        C  0.11497675  0.72387679  0.44938634     0.07000
C539        C  0.12854646  0.70776418  0.42043416    -0.02900
C540        C  0.11255484  0.67601160  0.42150239    -0.07400
C541        C  0.08290386  0.65976829  0.45156805     0.06200
C542        C  0.06949136  0.67648233  0.48063883    -0.02400
Br543      Br  0.03003912  0.65883753  0.52715151    -0.02100
H544        H  0.07536139  0.72074203  0.50143710     0.10100
H545        H  0.12367208  0.66407590  0.39999845     0.08100
Br546      Br  0.16956860  0.72846425  0.38376023    -0.02500
C547        C  0.32769682  0.89654111  0.44080733    -0.09200
C548        C  0.34353546  0.92836359  0.43303183     0.07000
C549        C  0.32626686  0.94314488  0.42244292    -0.02900
C550        C  0.29441524  0.92627622  0.42390186    -0.07400
C551        C  0.27918344  0.89497084  0.43515928     0.06200
C552        C  0.29588763  0.87995017  0.44169209    -0.02400
Br553      Br  0.27587737  0.83674256  0.45226785    -0.02100
H554        H  0.34000305  0.88440734  0.44795169     0.10100
H555        H  0.28132860  0.93763322  0.41712609     0.08100
Br556      Br  0.34363812  0.98607489  0.40729436    -0.02500
C557        C  0.10668538  0.93509228  0.48200859    -0.09200
C558        C  0.08017105  0.92361675  0.43531220     0.07000
C559        C  0.07284035  0.89879282  0.38538823    -0.02900
C560        C  0.09102013  0.88524307  0.38602558    -0.07400
C561        C  0.11662257  0.89591179  0.43555362     0.06200
C562        C  0.12482064  0.92161340  0.48237922    -0.02400
Br563      Br  0.16121498  0.94022046  0.54527776    -0.02100
H564        H  0.11314682  0.95439705  0.52006419     0.10100
H565        H  0.08477420  0.86579885  0.34871936     0.08100
Br566      Br  0.03921801  0.88300354  0.31310768    -0.02500
C567        C  0.10476891  0.67081932  0.97907461    -0.09200
C568        C  0.07687384  0.65455677  0.93842792     0.07000
C569        C  0.06713742  0.67089179  0.89125239    -0.02900
C570        C  0.08440667  0.70269290  0.88915494    -0.07400
C571        C  0.11126142  0.71878348  0.93360449     0.06200
C572        C  0.12180329  0.70246592  0.97719835    -0.02400
Br573      Br  0.15970501  0.72209455  0.03395788    -0.02100
H574        H  0.11304310  0.65897961  0.01496019     0.10100
H575        H  0.07638767  0.71503381  0.85442560     0.08100
Br576      Br  0.03096176  0.65148759  0.82739658    -0.02500
C577        C  0.28962204  0.88008468  0.91513903    -0.09200
C578        C  0.27461508  0.89381308  0.94950200     0.07000
C579        C  0.29182189  0.92156304  0.98916453    -0.02900
C580        C  0.32355540  0.93496202  0.99477881    -0.07400
C581        C  0.33882512  0.92084440  0.96259093     0.06200
C582        C  0.32129314  0.89303319  0.92174434    -0.02400
Br583      Br  0.33850606  0.87119620  0.87299226    -0.02100
H584        H  0.27638247  0.85859561  0.88488761     0.10100
H585        H  0.33621248  0.95620926  0.02639686     0.08100
Br586      Br  0.27285438  0.94205615  0.03553415    -0.02500
C587        C  0.11260324  0.90956785  0.90794849    -0.09200
C588        C  0.10744971  0.88712481  0.96261805     0.07000
C589        C  0.08521919  0.88037933  0.02021243    -0.02900
C590        C  0.06982093  0.89667666  0.02331555    -0.07400
C591        C  0.07565222  0.91960284  0.96993563     0.06200
C592        C  0.09690413  0.92561728  0.91084380    -0.02400
Br593      Br  0.10428529  0.95423726  0.82994501    -0.02100
H594        H  0.12911276  0.91482928  0.86277915     0.10100
H595        H  0.05340209  0.89163557  0.06873709     0.08100
Br596      Br  0.07283836  0.84822848  0.09409915    -0.02500
C597        C  0.14077493  0.83049193  0.64905292    -0.09200
C598        C  0.16719663  0.83458139  0.61197221     0.07000
C599        C  0.18739807  0.82926006  0.65774729    -0.02900
C600        C  0.18540708  0.82881581  0.73858331    -0.07400
C601        C  0.16221285  0.83109387  0.77646959     0.06200
C602        C  0.13746136  0.82726737  0.72959243    -0.02400
Br603      Br  0.09658821  0.81013153  0.76698193    -0.02100
H604        H  0.12136005  0.82717062  0.61475104     0.10100
H605        H  0.20114733  0.82471776  0.77193092     0.08100
Br606      Br  0.21382888  0.81596072  0.61648993    -0.02500
C607        C  0.13706416  0.82231595  0.15315270    -0.09200
C608        C  0.16263641  0.82626456  0.11248428     0.07000
C609        C  0.18461671  0.82284082  0.15530965    -0.02900
C610        C  0.18571219  0.82573949  0.23604879    -0.07400
C611        C  0.16381476  0.82956732  0.27600280     0.06200
C612        C  0.13694816  0.82277911  0.23402998    -0.02400
Br613      Br  0.09796446  0.80876074  0.28113981    -0.02100
H614        H  0.11647107  0.81750859  0.12210290     0.10100
H615        H  0.20273085  0.82312646  0.26777255     0.08100
Br616      Br  0.20982974  0.80875236  0.11017141    -0.02500
C617        C  0.38294931  0.58613407  0.58602244    -0.09200
C618        C  0.39564360  0.61589619  0.55856600     0.07000
C619        C  0.42487169  0.63006702  0.52648203    -0.02900
C620        C  0.44057353  0.61417546  0.52003164    -0.07400
C621        C  0.42757008  0.58396414  0.54474160     0.06200
C622        C  0.39856603  0.57002708  0.57902322    -0.02400
Br623      Br  0.37966775  0.52959088  0.61918291    -0.02100
H624        H  0.36048823  0.57520397  0.61115445     0.10100
H625        H  0.46271376  0.62523393  0.49325927     0.08100
Br626      Br  0.44429179  0.67124125  0.49165732    -0.02500
C627        C  0.37837552  0.79537437  0.57973109    -0.09200
C628        C  0.39075486  0.77921009  0.54457339     0.07000
C629        C  0.41802181  0.79535935  0.50311072    -0.02900
C630        C  0.43193278  0.82690977  0.49592728    -0.07400
C631        C  0.41923391  0.84328774  0.52916225     0.06200
C632        C  0.39209220  0.82697998  0.57222697    -0.02400
Br633      Br  0.37246222  0.84589888  0.62390175    -0.02100
H634        H  0.35748405  0.78316176  0.61194584     0.10100
H635        H  0.45270158  0.83860749  0.46300906     0.08100
Br636      Br  0.43805383  0.77566525  0.45794146    -0.02500
C637        C  0.20693963  0.62610819  0.55849073    -0.09200
C638        C  0.22317019  0.61062844  0.55872282     0.07000
C639        C  0.20735312  0.57882441  0.55625406    -0.02900
C640        C  0.17554507  0.56281651  0.55097607    -0.07400
C641        C  0.15887595  0.57811796  0.54750454     0.06200
C642        C  0.17507679  0.61031436  0.55317729    -0.02400
Br643      Br  0.15582971  0.63460889  0.55504033    -0.02100
H644        H  0.21926524  0.65067533  0.56128969     0.10100
H645        H  0.16395802  0.53828895  0.54692456     0.08100
Br646      Br  0.22866408  0.55664820  0.55789205    -0.02500
C647        C  0.38966633  0.56582636  0.03792925    -0.09200
C648        C  0.42145172  0.57970995  0.04734929     0.07000
C649        C  0.43863312  0.61148943  0.06055910    -0.02900
C650        C  0.42385523  0.62845693  0.06291562    -0.07400
C651        C  0.39233464  0.61442886  0.05142737     0.06200
C652        C  0.37517501  0.58293646  0.03944275    -0.02400
Br653      Br  0.33182267  0.56252385  0.02502450    -0.02100
H654        H  0.37600564  0.54161745  0.02720059     0.10100
H655        H  0.43694547  0.65272720  0.07311767     0.08100
Br656      Br  0.48196327  0.63315913  0.07811873    -0.02500
C657        C  0.38999245  0.82608480  0.03146381    -0.09200
C658        C  0.41767457  0.84192936  0.07340030     0.07000
C659        C  0.42745629  0.82500346  0.11784797    -0.02900
C660        C  0.41071429  0.79318407  0.11545427    -0.07400
C661        C  0.38411692  0.77756602  0.06974656     0.06200
C662        C  0.37328030  0.79435371  0.02950996    -0.02400
Br663      Br  0.33514482  0.77520338  0.97379515    -0.02100
H664        H  0.38157756  0.83837589  0.99793017     0.10100
H665        H  0.41879483  0.78048239  0.14840653     0.08100
Br666      Br  0.46271395  0.84362824  0.18493247    -0.02500
C667        C  0.17072854  0.56719169  0.08644743    -0.09200
C668        C  0.15598994  0.58048819  0.04737923     0.07000
C669        C  0.17379908  0.60906421  0.01223538    -0.02900
C670        C  0.20555180  0.62367105  0.01682514    -0.07400
C671        C  0.22026275  0.61056682  0.05633350     0.06200
C672        C  0.20261147  0.58207613  0.09162378    -0.02400
Br673      Br  0.22089979  0.56162881  0.14271112    -0.02100
H674        H  0.15741245  0.54512011  0.11275399     0.10100
H675        H  0.21897019  0.64536128  0.98881379     0.08100
Br676      Br  0.15639027  0.62837443  0.95167049    -0.02500
C677        C  0.35931728  0.68887486  0.85181317    -0.09200
C678        C  0.33370996  0.66573582  0.88944815     0.07000
C679        C  0.31445812  0.63958760  0.84420054    -0.02900
C680        C  0.31559790  0.64120797  0.76336511    -0.07400
C681        C  0.33726273  0.66749344  0.72519460     0.06200
C682        C  0.36202259  0.68906929  0.77104001    -0.02400
Br683      Br  0.40238079  0.71373194  0.73133992    -0.02100
H684        H  0.37859408  0.70552726  0.88556814     0.10100
H685        H  0.30053477  0.62098170  0.73022241     0.08100
Br686      Br  0.29080393  0.59947440  0.88607048    -0.02500
C687        C  0.32443739  0.68339227  0.26571005    -0.09200
C688        C  0.33011209  0.66278478  0.22529214     0.07000
C689        C  0.32690927  0.63761049  0.26771086    -0.02900
C690        C  0.32890466  0.63929424  0.34869118    -0.07400
C691        C  0.33074599  0.66418955  0.38914036     0.06200
C692        C  0.32329000  0.68336299  0.34647979    -0.02400
Br693      Br  0.30590804  0.70573732  0.39179706    -0.02100
H694        H  0.31893162  0.69840874  0.23434868     0.10100
H695        H  0.32654330  0.61990070  0.38000109     0.08100
Br696      Br  0.31264251  0.59815206  0.22208689    -0.02500
C697        C  0.83229742  0.16466906  0.13720166     0.30000
C698        C  0.83242001  0.16619917  0.97812028     0.30000
C699        C  0.85049781  0.15199783  0.09684626    -0.06200
C700        C  0.80108494  0.14793310  0.09677022    -0.08400
C701        C  0.84673186  0.19658210  0.10092718    -0.06800
C702        C  0.84980762  0.15215296  0.01619544    -0.06200
C703        C  0.80089642  0.14922280  0.01626545    -0.07000
C704        C  0.84642450  0.19742181  0.01992957    -0.06900
C705        C  0.86646742  0.13942001  0.99041025    -0.32200
N706        N  0.87772722  0.13218631  0.05317762     0.14300
C707        C  0.86897735  0.14051527  0.11825597    -0.32200
H708        H  0.87489059  0.13742854  0.17663535     0.16200
C709        C  0.77076160  0.13641815  0.99333987    -0.31200
N710        N  0.75298045  0.12579528  0.05696019     0.13000
C711        C  0.77131936  0.13330282  0.12065029    -0.31200
C712        C  0.85950951  0.22763234  0.99979003    -0.31500
N713        N  0.86832794  0.24491168  0.06552775     0.13500
H714        H  0.86275989  0.23658857  0.94172062     0.16100
C715        C  0.86125057  0.22625072  0.12727968    -0.31500
H716        H  0.86649953  0.23395193  0.18691242     0.16100
H717        H  0.76358218  0.12928179  0.17994699     0.16100
H718        H  0.86964587  0.13509519  0.93074911     0.16200
H719        H  0.76227492  0.13492479  0.93470767     0.16100
C720        C  0.83400904  0.16593337  0.47746137     0.30000
C721        C  0.83621134  0.16817626  0.63658669     0.30000
C722        C  0.85080624  0.15127562  0.51700904    -0.06200
C723        C  0.85085711  0.19788263  0.51438756    -0.07000
C724        C  0.80326159  0.15068541  0.51803451    -0.06800
C725        C  0.85153574  0.15211864  0.59784407    -0.06200
C726        C  0.85092608  0.19927192  0.59519668    -0.07000
C727        C  0.80411566  0.15203672  0.59861362    -0.06900
C728        C  0.86801128  0.13877853  0.62244697    -0.32200
N729        N  0.87794551  0.13071990  0.55890933     0.14300
C730        C  0.86793885  0.13849835  0.49452561    -0.32200
H731        H  0.87336364  0.13544389  0.43593317     0.16200
C732        C  0.86458851  0.22978695  0.61485664    -0.31200
N733        N  0.87502533  0.24654973  0.54936465     0.13000
C734        C  0.86683995  0.22723938  0.48796314    -0.31200
C735        C  0.77416394  0.13793077  0.62238108    -0.31500
N736        N  0.75575668  0.12742080  0.55873105     0.13500
H737        H  0.76611020  0.13538020  0.68120039     0.16100
C738        C  0.77317818  0.13512027  0.49464914    -0.31500
H739        H  0.76454063  0.12980477  0.43562573     0.16100
H740        H  0.87152085  0.23416427  0.42809272     0.16100
H741        H  0.87305493  0.13583207  0.68184468     0.16200
H742        H  0.86713140  0.23923483  0.67252688     0.16100
C743        C  0.66321882  0.32916301  0.02451602     0.30000
C744        C  0.66225002  0.33142523  0.86550277     0.30000
C745        C  0.64596957  0.34405503  0.98915334    -0.06200
C746        C  0.69438956  0.34813324  0.98631599    -0.07000
C747        C  0.64915450  0.29872119  0.98143486    -0.06800
C748        C  0.64533273  0.34531568  0.90837404    -0.06200
C749        C  0.69408240  0.34902888  0.90550761    -0.07000
C750        C  0.64867372  0.29974611  0.90109860    -0.06900
C751        C  0.63223380  0.36274761  0.89036419    -0.32200
N752        N  0.62394824  0.37087963  0.95704928     0.14300
C753        C  0.63402029  0.36112109  0.01729399    -0.32200
H754        H  0.63407256  0.36736030  0.07722920     0.16200
C755        C  0.72392547  0.36781383  0.88337834    -0.31200
N756        N  0.74188595  0.37823341  0.94793798     0.13000
C757        C  0.72402735  0.36701772  0.01097784    -0.31200
C758        C  0.63463266  0.27014702  0.87431974    -0.31500
N759        N  0.62692483  0.25142688  0.93642169     0.13500
H760        H  0.63030388  0.26275753  0.81430604     0.16100
C761        C  0.63527587  0.26871121  0.00204522    -0.31500
H762        H  0.63111359  0.26004712  0.06055129     0.16100
H763        H  0.73228441  0.37173519  0.07034629     0.16100
H764        H  0.62924097  0.36935557  0.83289609     0.16200
H765        H  0.73223602  0.37364743  0.82487956     0.16100
C766        C  0.66635476  0.33351170  0.36406505     0.30000
C767        C  0.66821844  0.33597916  0.52330243     0.30000
C768        C  0.65213881  0.35086542  0.40169410    -0.06200
C769        C  0.65137504  0.30322207  0.40568160    -0.07000
C770        C  0.69841011  0.35015628  0.40155156    -0.06800
C771        C  0.65259391  0.35178738  0.48259395    -0.06200
C772        C  0.65215185  0.30433198  0.48595332    -0.07000
C773        C  0.69950328  0.35182877  0.48274945    -0.06900
C774        C  0.64067719  0.36987189  0.50391271    -0.32200
N775        N  0.63326615  0.37988862  0.43879265     0.14300
C776        C  0.64088673  0.36901766  0.37632448    -0.32200
H777        H  0.63827350  0.37394684  0.31666690     0.16200
C778        C  0.63870084  0.27484020  0.51134106    -0.31200
N779        N  0.63049354  0.25628180  0.44822373     0.13000
C780        C  0.63795718  0.27331308  0.38338433    -0.31200
C781        C  0.72976841  0.37027934  0.50360435    -0.31500
N782        N  0.74664045  0.37841825  0.43833431     0.13500
H783        H  0.73897581  0.37739937  0.56165983     0.16100
C784        C  0.72786010  0.36707168  0.37583377    -0.31500
H785        H  0.73534756  0.37139041  0.31639951     0.16100
H786        H  0.63401367  0.26452023  0.32460535     0.16100
H787        H  0.63739863  0.37524732  0.56240897     0.16200
H788        H  0.63561777  0.26740138  0.57095692     0.16100
O789        O  0.53654933  0.48598334  0.06737960    -0.88300
C790        C  0.54366297  0.04081216  0.88636042     0.87700
Mg791      Mg  0.50204262  0.43863634  0.06918883     1.58100
O792        O  0.51222175  0.05220268  0.05525330    -0.88100
O793        O  0.55172155  0.02730824  0.13665719    -0.75400
C794        C  0.87236809  0.43511122  0.97610711     0.92700
O795        O  0.52131142  0.46859618  0.88693259    -0.75200
O796        O  0.88513082  0.41913188  0.97077798    -0.82700
Mg797      Mg  0.56244649  0.00199017  0.96207264     1.58000
C798        C  0.93566674  0.06068004  0.03779568     0.92700
O799        O  0.60824858  0.03567206  0.02368196    -0.81000
H800        H  0.51573023  0.06256260  0.16816443    -0.06300
C801        C  0.95067463  0.49788794  0.89015021     0.87600
O802        O  0.97130051  0.44881224  0.14589571    -0.75500
O803        O  0.54915404  0.03559338  0.95268097    -0.88300
O804        O  0.96257882  0.07267564  0.01180872    -0.81100
C805        C  0.55792770  0.12137479  0.95264643     0.92800
C806        C  0.62239727  0.06397720  0.04023486     0.92600
Mg807      Mg  0.93285430  0.49593936  0.05864578     1.58000
O808        O  0.88747679  0.46302880  0.99628164    -0.81000
O809        O  0.97387544  0.02891173  0.13399034    -0.75200
O810        O  0.57095957  0.10736171  0.97921849    -0.81100
O811        O  0.57611626  0.46632854  0.96868774    -0.82800
O812        O  0.92324007  0.38971673  0.03983107    -0.81100
C813        C  0.00128570  0.04886152  0.12064999     0.87100
O814        O  0.94548592  0.46169174  0.06777022    -0.88200
O815        O  0.95866392  0.01133542  0.95325503    -0.88400
O816        O  0.94282831  0.47007883  0.88350686    -0.75400
Mg817      Mg  0.55916603  0.06507343  0.05147207     1.58000
O818        O  0.52916669  0.10815820  0.94393137    -0.82800
H819        H  0.54355396  0.48719659  0.18191032    -0.06500
O820        O  0.98252046  0.44516466  0.96441737    -0.88100
H821        H  0.97949787  0.43513197  0.85138588    -0.06300
H822        H  0.93912499  0.45842524  0.18225201    -0.06500
C823        C  0.49376449  0.44871116  0.89934078     0.87000
C824        C  0.54416200  0.99953598  0.13046083     0.87600
C825        C  0.95111051  0.45614731  0.13362188     0.87700
H826        H  0.95126285  0.01034303  0.83893410    -0.06500
O827        O  0.52334095  0.04783341  0.87297501    -0.75500
Mg828      Mg  0.93516559  0.43232939  0.96835205     1.58000
H829        H  0.55577721  0.03837254  0.83825763    -0.06500
C830        C  0.56080645  0.43796479  0.98081101     0.92700
O831        O  0.96531354  0.38860503  0.07131650    -0.82700
C832        C  0.93646803  0.37541089  0.06308716     0.92700
O833        O  0.60861771  0.07884042  0.04760865    -0.82700
Mg834      Mg  0.99297480  0.05838976  0.94944004     1.58200
O835        O  0.53365333  0.42516183  0.00636155    -0.81100
O836        O  0.91991459  0.03237455  0.05114783    -0.82800
O837        O  0.98931434  0.04141146  0.43469692    -0.88300
C838        C  0.54742948  0.04786510  0.60703800     0.87700
Mg839      Mg  0.94182478  0.00841369  0.43663318     1.58100
O840        O  0.55353823  0.01525756  0.43293181    -0.88100
O841        O  0.52861481  0.05606716  0.35945038    -0.75400
C842        C  0.93439759  0.37671691  0.51552147     0.92700
O843        O  0.97586838  0.02703785  0.61591196    -0.75200
O844        O  0.91938671  0.39040598  0.52359559    -0.82700
Mg845      Mg  0.50797869  0.06727062  0.53973686     1.58000
C846        C  0.56052016  0.43738199  0.44424264     0.92700
O847        O  0.54013590  0.11121242  0.47739373    -0.81000
H848        H  0.56106923  0.01746855  0.31899094    -0.06300
C849        C  0.00155469  0.45411762  0.59939132     0.87600
O850        O  0.94908091  0.47690263  0.35450886    -0.75500
O851        O  0.54112114  0.05344059  0.54205847    -0.88300
O852        O  0.57316913  0.46470370  0.46875835    -0.81100
C853        C  0.62546215  0.06006283  0.53168074     0.92800
C854        C  0.56787870  0.12613333  0.45767252     0.92600
Mg855      Mg  0.99547064  0.43564556  0.43035925     1.58000
O856        O  0.96204142  0.39079311  0.49295246    -0.81000
O857        O  0.52790436  0.47619182  0.35512888    -0.75200
O858        O  0.61171132  0.07337585  0.50567745    -0.81100
O859        O  0.97330538  0.08242970  0.53912847    -0.82800
O860        O  0.89068214  0.43056016  0.46319738    -0.81100
C861        C  0.54836479  0.50364518  0.36746166     0.87100
O862        O  0.96175189  0.44951334  0.42668691    -0.88200
O863        O  0.51359621  0.46208289  0.53538030    -0.88400
O864        O  0.97398975  0.44685223  0.60947814    -0.75400
Mg865      Mg  0.56808671  0.06275584  0.43934213     1.58000
O866        O  0.61159454  0.03138258  0.54008020    -0.82800
H867        H  0.98737274  0.04848343  0.32131681    -0.06500
O868        O  0.94984794  0.48841292  0.53743588    -0.88100
H869        H  0.94260250  0.48575545  0.65157974    -0.06300
H870        H  0.95630231  0.44388477  0.31179296    -0.06500
C871        C  0.95523619  0.99971393  0.60324812     0.87000
C872        C  0.50110260  0.04890085  0.37009909     0.87600
C873        C  0.95548943  0.45591657  0.36257864     0.87700
H874        H  0.51500530  0.45414699  0.64836695    -0.06500
O875        O  0.55341686  0.02677021  0.61752806    -0.75500
Mg876      Mg  0.93476487  0.44073330  0.52949591     1.58000
H877        H  0.54661112  0.06045866  0.65661274    -0.06500
C878        C  0.94452778  0.06776343  0.53082067     0.92700
O879        O  0.89197785  0.47381752  0.43731864    -0.82700
C880        C  0.87730339  0.44518480  0.44374850     0.92700
O881        O  0.58330647  0.11302922  0.44655969    -0.82700
Mg882      Mg  0.56118065  0.49582084  0.53622383     1.58200
O883        O  0.93033169  0.04033490  0.50651170    -0.81100
O884        O  0.53178963  0.42150994  0.43329854    -0.82800
C885        C  0.58567678  0.20813053  0.47917214    -0.09200
C886        C  0.61498647  0.22388218  0.44943167     0.07000
C887        C  0.62855680  0.20777821  0.42042229    -0.02900
C888        C  0.61256739  0.17602518  0.42144314    -0.07400
C889        C  0.58291911  0.15977397  0.45151924     0.06200
C890        C  0.56950780  0.17647935  0.48065748    -0.02400
Br891      Br  0.53006531  0.15882213  0.52723010    -0.02100
H892        H  0.57537461  0.22073222  0.50154501     0.10100
H893        H  0.62368362  0.16409491  0.39989413     0.08100
Br894      Br  0.66957737  0.22848946  0.38373746    -0.02500
C895        C  0.82767500  0.39653506  0.44101092    -0.09200
C896        C  0.84351823  0.42835971  0.43328788     0.07000
C897        C  0.82625423  0.44314940  0.42276743    -0.02900
C898        C  0.79440295  0.42628500  0.42422218    -0.07400
C899        C  0.77916641  0.39497599  0.43540927     0.06200
C900        C  0.79586541  0.37994836  0.44189106    -0.02400
Br901      Br  0.77584681  0.33673701  0.45238652    -0.02100
H902        H  0.83997792  0.38439602  0.44810914     0.10100
H903        H  0.78131989  0.43764762  0.41749189     0.08100
Br904      Br  0.84363026  0.48608564  0.40772235    -0.02500
C905        C  0.60669180  0.43512365  0.48193939    -0.09200
C906        C  0.58014104  0.42360440  0.43536470     0.07000
C907        C  0.57276628  0.39872451  0.38560281    -0.02900
C908        C  0.59094522  0.38517462  0.38626847    -0.07400
C909        C  0.61658546  0.39589267  0.43567404     0.06200
C910        C  0.62482136  0.42163824  0.48234707    -0.02400
Br911      Br  0.66125700  0.44028490  0.54508396    -0.02100
H912        H  0.61318658  0.45446714  0.51987652     0.10100
H913        H  0.58467100  0.36569240  0.34908363     0.08100
Br914      Br  0.53907756  0.38284424  0.31351691    -0.02500
C915        C  0.60471766  0.17080826  0.97949084    -0.09200
C916        C  0.57689487  0.15454325  0.93854500     0.07000
C917        C  0.56722543  0.17087332  0.89114443    -0.02900
C918        C  0.58448183  0.20267635  0.88911502    -0.07400
C919        C  0.61126250  0.21877267  0.93384505     0.06200
C920        C  0.62174436  0.20245511  0.97767179    -0.02400
Br921      Br  0.65956051  0.22207008  0.03480873    -0.02100
H922        H  0.61293916  0.15896754  0.01555279     0.10100
H923        H  0.57651094  0.21501201  0.85419565     0.08100
Br924      Br  0.53117200  0.15144931  0.82685612    -0.02500
C925        C  0.78961693  0.38011655  0.91518865    -0.09200
C926        C  0.77460741  0.39384460  0.94953523     0.07000
C927        C  0.79181140  0.42160462  0.98915556    -0.02900
C928        C  0.82354572  0.43500991  0.99476443    -0.07400
C929        C  0.83881776  0.42088918  0.96260737     0.06200
C930        C  0.82128820  0.39307214  0.92178163    -0.02400
Br931      Br  0.83850165  0.37123215  0.87304638    -0.02100
H932        H  0.77637892  0.35862123  0.88496337     0.10100
H933        H  0.83620107  0.45626346  0.02635683     0.08100
Br934      Br  0.77283785  0.44210099  0.03547404    -0.02500
C935        C  0.61264067  0.40958194  0.90799175    -0.09200
C936        C  0.60749296  0.38715608  0.96271084     0.07000
C937        C  0.58527296  0.38043100  0.02032115    -0.02900
C938        C  0.56987050  0.39672349  0.02336930    -0.07400
C939        C  0.57569063  0.41962702  0.96992858     0.06200
C940        C  0.59693966  0.42562930  0.91084057    -0.02400
Br941      Br  0.60431371  0.45422892  0.82989254    -0.02100
H942        H  0.62914553  0.41483010  0.86281758     0.10100
H943        H  0.55345738  0.39169748  0.06879744     0.08100
Br944      Br  0.57291164  0.34831764  0.09431475    -0.02500
C945        C  0.64075079  0.33048112  0.64921027    -0.09200
C946        C  0.66716794  0.33456521  0.61211682     0.07000
C947        C  0.68736565  0.32923112  0.65787187    -0.02900
C948        C  0.68538013  0.32878306  0.73870814    -0.07400
C949        C  0.66219145  0.33106479  0.77660929     0.06200
C950        C  0.63743958  0.32724750  0.72974876    -0.02400
Br951      Br  0.59656885  0.31011176  0.76715764    -0.02100
H952        H  0.62133768  0.32717080  0.61491893     0.10100
H953        H  0.70112260  0.32468457  0.77204503     0.08100
Br954      Br  0.71378757  0.31592625  0.61658249    -0.02500
C955        C  0.63707312  0.32233295  0.15328406    -0.09200
C956        C  0.66264956  0.32628665  0.11262632     0.07000
C957        C  0.68463503  0.32287577  0.15546461    -0.02900
C958        C  0.68572403  0.32577335  0.23620340    -0.07400
C959        C  0.66381749  0.32958980  0.27614685     0.06200
C960        C  0.63695166  0.32279508  0.23416045    -0.02400
Br961      Br  0.59796165  0.30876392  0.28124783    -0.02100
H962        H  0.61648071  0.31752252  0.12222500     0.10100
H963        H  0.70274390  0.32316510  0.26793539     0.08100
Br964      Br  0.70986462  0.30880348  0.11034735    -0.02500
C965        C  0.88295332  0.08611733  0.58615015    -0.09200
C966        C  0.89563780  0.11587255  0.55864798     0.07000
C967        C  0.92486269  0.13004140  0.52654411    -0.02900
C968        C  0.94056991  0.11415426  0.52011684    -0.07400
C969        C  0.92757555  0.08394904  0.54486926     0.06200
C970        C  0.89857551  0.07001454  0.57917323    -0.02400
Br971      Br  0.87969117  0.02958843  0.61939561    -0.02100
H972        H  0.86049584  0.07518907  0.61130239     0.10100
H973        H  0.96270732  0.12521109  0.49332927     0.08100
Br974      Br  0.94427348  0.17120840  0.49166652    -0.02500
C975        C  0.87835384  0.29535410  0.57973637    -0.09200
C976        C  0.89076245  0.27919865  0.54468295     0.07000
C977        C  0.91804878  0.29535312  0.50330417    -0.02900
C978        C  0.93195488  0.32690265  0.49610633    -0.07400
C979        C  0.91922920  0.34327382  0.52923900     0.06200
C980        C  0.89206285  0.32695805  0.57221188    -0.02400
Br981      Br  0.87237785  0.34585765  0.62371299    -0.02100
H982        H  0.85744424  0.28313483  0.61187743     0.10100
H983        H  0.95274094  0.33860424  0.46325647     0.08100
Br984      Br  0.93810645  0.27566249  0.45826371    -0.02500
C985        C  0.70694846  0.12611907  0.55845644    -0.09200
C986        C  0.72317607  0.11063646  0.55877199     0.07000
C987        C  0.70735649  0.07883198  0.55636718    -0.02900
C988        C  0.67554885  0.06282549  0.55107157    -0.07400
C989        C  0.65888262  0.07812868  0.54751797     0.06200
C990        C  0.67508609  0.11032692  0.55312593    -0.02400
Br991      Br  0.65584507  0.13462817  0.55486780    -0.02100
H992        H  0.71927625  0.15068694  0.56120333     0.10100
H993        H  0.66396029  0.03829684  0.54706900     0.08100
Br994      Br  0.72866397  0.05665281  0.55810081    -0.02500
C995        C  0.88969140  0.06587157  0.03805816    -0.09200
C996        C  0.92147264  0.07974465  0.04754681     0.07000
C997        C  0.93865896  0.11151946  0.06081882    -0.02900
C998        C  0.92388973  0.12849492  0.06316018    -0.07400
C999        C  0.89237400  0.11447863  0.05159053     0.06200
C1000       C  0.87520898  0.08298930  0.03955296    -0.02400
Br1001     Br  0.83186135  0.06258940  0.02503787    -0.02100
H1002       H  0.87602827  0.04166593  0.02728268     0.10100
H1003       H  0.93698319  0.15276231  0.07340616     0.08100
Br1004     Br  0.98198333  0.13316968  0.07847719    -0.02500
C1005       C  0.89003190  0.32610303  0.03098723    -0.09200
C1006       C  0.91761340  0.34194740  0.07332655     0.07000
C1007       C  0.92729209  0.32502956  0.11815117    -0.02900
C1008       C  0.91055779  0.29320994  0.11575040    -0.07400
C1009       C  0.88406190  0.27758361  0.06966929     0.06200
C1010       C  0.87331990  0.29437246  0.02903027    -0.02400
Br1011     Br  0.83530798  0.27524307  0.97275475    -0.02100
H1012       H  0.88170015  0.33839642  0.99715213     0.10100
H1013       H  0.91856742  0.28051667  0.14900522     0.08100
Br1014     Br  0.96238151  0.34368023  0.18579097    -0.02500
C1015       C  0.67074059  0.06717386  0.08651664    -0.09200
C1016       C  0.65600388  0.08049123  0.04753326     0.07000
C1017       C  0.67381612  0.10908591  0.01247816    -0.02900
C1018       C  0.70556864  0.12368485  0.01704993    -0.07400
C1019       C  0.72027586  0.11055631  0.05646083     0.06200
C1020       C  0.70262348  0.08205276  0.09168302    -0.02400
Br1021     Br  0.72091444  0.06158684  0.14266223    -0.02100
H1022       H  0.65742331  0.04508974  0.11275939     0.10100
H1023       H  0.71899011  0.14538770  0.98909856     0.08100
Br1024     Br  0.65641428  0.12843672  0.95205170    -0.02500
C1025       C  0.85932719  0.18885777  0.85188401    -0.09200
C1026       C  0.83371581  0.16572559  0.88952104     0.07000
C1027       C  0.81446049  0.13957681  0.84427955    -0.02900
C1028       C  0.81559708  0.14119596  0.76344342    -0.07400
C1029       C  0.83726568  0.16747850  0.72527039     0.06200
C1030       C  0.86203047  0.18904974  0.77111131    -0.02400
Br1031     Br  0.90238881  0.21370401  0.73140334    -0.02100
H1032       H  0.87860585  0.20550801  0.88563891     0.10100
H1033       H  0.80053048  0.12097043  0.73030248     0.08100
Br1034     Br  0.79081710  0.09946322  0.88615372    -0.02500
C1035       C  0.82445518  0.18341395  0.26580290    -0.09200
C1036       C  0.83012868  0.16280975  0.22536627     0.07000
C1037       C  0.82692683  0.13763151  0.26776746    -0.02900
C1038       C  0.82892023  0.13930614  0.34874751    -0.07400
C1039       C  0.83075847  0.16419547  0.38921711     0.06200
C1040       C  0.82330557  0.18337527  0.34657356    -0.02400
Br1041     Br  0.80592578  0.20574778  0.39191433    -0.02100
H1042       H  0.81894533  0.19843033  0.23445768     0.10100
H1043       H  0.82655916  0.11990944  0.38004028     0.08100
Br1044     Br  0.81267550  0.09817977  0.22211589    -0.02500
C1045       C  0.83228626  0.66466581  0.13722100     0.30000
C1046       C  0.83241315  0.66619290  0.97813919     0.30000
C1047       C  0.85048523  0.65199076  0.09687372    -0.06200
C1048       C  0.80107469  0.64793114  0.09678493    -0.08400
C1049       C  0.84672387  0.69657857  0.10094153    -0.06800
C1050       C  0.84979705  0.65214473  0.01622255    -0.06200
C1051       C  0.80088851  0.64921998  0.01627974    -0.07000
C1052       C  0.84641977  0.69741638  0.01994385    -0.06900
C1053       C  0.86645608  0.63941026  0.99044378    -0.32200
N1054       N  0.87771332  0.63217600  0.05321487     0.14300
C1055       C  0.86896228  0.64050583  0.11829011    -0.32200
H1056       H  0.87487393  0.63741931  0.17667142     0.16200
C1057       C  0.77075444  0.63641452  0.99334752    -0.31200
N1058       N  0.75297171  0.62579154  0.05696450     0.13000
C1059       C  0.77130828  0.63329926  0.12065900    -0.31200
C1060       C  0.85950902  0.72762637  0.99979772    -0.31500
N1061       N  0.86832395  0.74490819  0.06553140     0.13500
H1062       H  0.86276483  0.73658026  0.94172527     0.16100
C1063       C  0.86124206  0.72624822  0.12728784    -0.31500
H1064       H  0.86648710  0.73395064  0.18692023     0.16100
H1065       H  0.76356871  0.62927593  0.17995359     0.16100
H1066       H  0.86963678  0.63508590  0.93078406     0.16200
H1067       H  0.76226912  0.63491985  0.93471324     0.16100
C1068       C  0.83399493  0.66593256  0.47748112     0.30000
C1069       C  0.83619817  0.66817037  0.63660677     0.30000
C1070       C  0.85079570  0.65127719  0.51702143    -0.06200
C1071       C  0.85084006  0.69788073  0.51441382    -0.07000
C1072       C  0.80324761  0.65068002  0.51805524    -0.06800
C1073       C  0.85152564  0.65211762  0.59785622    -0.06200
C1074       C  0.85090981  0.69926744  0.59522344    -0.07000
C1075       C  0.80410201  0.65202825  0.59863495    -0.06900
C1076       C  0.86800397  0.63877978  0.62245193    -0.32200
N1077       N  0.87793955  0.63072507  0.55891015     0.14300
C1078       C  0.86793056  0.63850338  0.49453043    -0.32200
H1079       H  0.87335402  0.63545008  0.43593554     0.16200
C1080       C  0.86457836  0.72978230  0.61489098    -0.31200
N1081       N  0.87501780  0.74654691  0.54940242     0.13000
C1082       C  0.86682774  0.72723814  0.48799617    -0.31200
C1083       C  0.77415014  0.63791829  0.62240322    -0.31500
N1084       N  0.75574266  0.62740934  0.55875324     0.13500
H1085       H  0.76609637  0.63536588  0.68122287     0.16100
C1086       C  0.77316408  0.63511359  0.49467043    -0.31500
H1087       H  0.76452642  0.62980127  0.43564666     0.16100
H1088       H  0.87151147  0.73416462  0.42812742     0.16100
H1089       H  0.87304801  0.63583156  0.68184785     0.16200
H1090       H  0.86712622  0.73922884  0.67256465     0.16100
C1091       C  0.66321559  0.82916139  0.02454641     0.30000
C1092       C  0.66224433  0.83142149  0.86553311     0.30000
C1093       C  0.64596637  0.84405354  0.98918607    -0.06200
C1094       C  0.69438596  0.84813079  0.98634189    -0.07000
C1095       C  0.64914818  0.79871889  0.98146719    -0.06800
C1096       C  0.64532846  0.84531368  0.90840604    -0.06200
C1097       C  0.69407721  0.84902470  0.90553375    -0.07000
C1098       C  0.64866796  0.79974272  0.90113154    -0.06900
C1099       C  0.63222953  0.86274600  0.89039906    -0.32200
N1100       N  0.62394385  0.87087697  0.95708564     0.14300
C1101       C  0.63401579  0.86111798  0.01732926    -0.32200
H1102       H  0.63406624  0.86735539  0.07726538     0.16200
C1103       C  0.72392004  0.86780698  0.88339852    -0.31200
N1104       N  0.74188194  0.87822786  0.94795497     0.13000
C1105       C  0.72402478  0.86701562  0.01099834    -0.31200
C1106       C  0.63462750  0.77014313  0.87435563    -0.31500
N1107       N  0.62691659  0.75142279  0.93645895     0.13500
H1108       H  0.63030231  0.76275378  0.81434163     0.16100
C1109       C  0.63526478  0.76870908  0.00207997    -0.31500
H1110       H  0.63109682  0.76004725  0.06058795     0.16100
H1111       H  0.73228364  0.87173554  0.07036517     0.16100
H1112       H  0.62923707  0.86935544  0.83293249     0.16200
H1113       H  0.73222945  0.87363736  0.82489797     0.16100
C1114       C  0.66636221  0.83350757  0.36409710     0.30000
C1115       C  0.66822268  0.83597488  0.52333456     0.30000
C1116       C  0.65215514  0.85087010  0.40172164    -0.06200
C1117       C  0.65137225  0.80321788  0.40571358    -0.07000
C1118       C  0.69841723  0.85014301  0.40158822    -0.06800
C1119       C  0.65260863  0.85179249  0.48262115    -0.06200
C1120       C  0.65214734  0.80432778  0.48598531    -0.07000
C1121       C  0.69950885  0.85181498  0.48278653    -0.06900
C1122       C  0.64069313  0.86987870  0.50393412    -0.32200
N1123       N  0.63328403  0.87989519  0.43881040     0.14300
C1124       C  0.64090446  0.86902255  0.37634586    -0.32200
H1125       H  0.63828985  0.87394884  0.31668660     0.16200
C1126       C  0.63868794  0.77483560  0.51137349    -0.31200
N1127       N  0.63047711  0.75627685  0.44825642     0.13000
C1128       C  0.63794702  0.77330833  0.38341671    -0.31200
C1129       C  0.72977444  0.87026100  0.50364582    -0.31500
N1130       N  0.74664799  0.87839850  0.43837814     0.13500
H1131       H  0.73898078  0.87738094  0.56170221     0.16100
C1132       C  0.72786835  0.86705564  0.37587516    -0.31500
H1133       H  0.73535704  0.87137694  0.31644215     0.16100
H1134       H  0.63400438  0.76451529  0.32463802     0.16100
H1135       H  0.63741230  0.87525405  0.56242842     0.16200
H1136       H  0.63560308  0.76739670  0.57098940     0.16100
O1137       O  0.53655275  0.98599013  0.06742660    -0.88300
C1138       C  0.54365526  0.54080769  0.88632449     0.87700
Mg1139     Mg  0.50204455  0.93864188  0.06924082     1.58100
O1140       O  0.51221454  0.55219629  0.05522027    -0.88100
O1141       O  0.55171191  0.52729789  0.13662050    -0.75400
C1142       C  0.87236571  0.93510549  0.97611422     0.92700
O1143       O  0.52131791  0.96859979  0.88698156    -0.75200
O1144       O  0.88513113  0.91912875  0.97078369    -0.82700
Mg1145     Mg  0.56244100  0.50198553  0.96202298     1.58000
C1146       C  0.93566696  0.56068349  0.03778786     0.92700
O1147       O  0.60824290  0.53566617  0.02363222    -0.81000
H1148       H  0.51572528  0.56255871  0.16813013    -0.06300
C1149       C  0.95067601  0.99788527  0.89016541     0.87600
O1150       O  0.97129742  0.94880781  0.14591276    -0.75500
O1151       O  0.54914672  0.53558763  0.95264350    -0.88300
O1152       O  0.96257799  0.57268071  0.01179193    -0.81100
C1153       C  0.55792457  0.62136872  0.95262100     0.92800
C1154       C  0.62238978  0.56396966  0.04020316     0.92600
Mg1155     Mg  0.93285060  0.99593470  0.05865750     1.58000
O1156       O  0.88747312  0.96302335  0.99628806    -0.81000
O1157       O  0.97388072  0.52891706  0.13397204    -0.75200
O1158       O  0.57095235  0.60735264  0.97919789    -0.81100
O1159       O  0.57611985  0.96633213  0.96874994    -0.82800
O1160       O  0.92323933  0.88971520  0.03983867    -0.81100
C1161       C  0.00128998  0.54886795  0.12062578     0.87100
O1162       O  0.94548292  0.96168739  0.06778579    -0.88200
O1163       O  0.95866405  0.51133971  0.95323777    -0.88400
O1164       O  0.94283039  0.97007656  0.88351856    -0.75400
Mg1165     Mg  0.55915750  0.56506434  0.05144213     1.58000
O1166       O  0.52916371  0.60815652  0.94389562    -0.82800
H1167       H  0.54356050  0.98720709  0.18195624    -0.06500
O1168       O  0.98252151  0.94516229  0.96443836    -0.88100
H1169       H  0.97950139  0.93513038  0.85140685    -0.06300
H1170       H  0.93912184  0.95842096  0.18226764    -0.06500
C1171       C  0.49377077  0.94871488  0.89938764     0.87000
C1172       C  0.54415592  0.49952689  0.13041718     0.87600
C1173       C  0.95110746  0.95614299  0.13363779     0.87700
H1174       H  0.95126041  0.51034452  0.83891743    -0.06500
O1175       O  0.52333339  0.54782950  0.87294233    -0.75500
Mg1176     Mg  0.93516633  0.93232727  0.96836411     1.58000
H1177       H  0.55576897  0.53836853  0.83821971    -0.06500
C1178       C  0.56080922  0.93796830  0.98087177     0.92700
O1179       O  0.96530995  0.88859925  0.07133843    -0.82700
C1180       C  0.93646475  0.87540774  0.06309965     0.92700
O1181       O  0.60860864  0.57883081  0.04758732    -0.82700
Mg1182     Mg  0.99297420  0.55839491  0.94941684     1.58200
O1183       O  0.53365582  0.92516589  0.00642071    -0.81100
O1184       O  0.91991760  0.53237814  0.05114319    -0.82800
O1185       O  0.98930863  0.54141835  0.43470630    -0.88300
C1186       C  0.54741235  0.54785520  0.60707856     0.87700
Mg1187     Mg  0.94181890  0.50842276  0.43663731     1.58100
O1188       O  0.55352158  0.51525440  0.43295853    -0.88100
O1189       O  0.52859615  0.55606538  0.35949711    -0.75400
C1190       C  0.93441485  0.87671454  0.51554808     0.92700
O1191       O  0.97586061  0.52704057  0.61591753    -0.75200
O1192       O  0.91940427  0.89040414  0.52361675    -0.82700
Mg1193     Mg  0.50796032  0.56726285  0.53979323     1.58000
C1194       C  0.56053543  0.93738508  0.44424023     0.92700
O1195       O  0.54011864  0.61120815  0.47746379    -0.81000
H1196       H  0.56105258  0.51747026  0.31901670    -0.06300
C1197       C  0.00156876  0.95411854  0.59940023     0.87600
O1198       O  0.94908907  0.97689249  0.35451255    -0.75500
O1199       O  0.54110366  0.55343337  0.54210261    -0.88300
O1200       O  0.57318415  0.96470756  0.46874984    -0.81100
C1201       C  0.62544664  0.56005729  0.53170645     0.92800
C1202       C  0.56785971  0.62612871  0.45772743     0.92600
Mg1203     Mg  0.99548536  0.93564176  0.43036904     1.58000
O1204       O  0.96205800  0.89078902  0.49297240    -0.81000
O1205       O  0.52792090  0.97619164  0.35511235    -0.75200
O1206       O  0.61169491  0.57337056  0.50571055    -0.81100
O1207       O  0.97330137  0.58243658  0.53914238    -0.82800
O1208       O  0.89069440  0.93055081  0.46320361    -0.81100
C1209       C  0.54838133  0.00364554  0.36743847     0.87100
O1210       O  0.96176440  0.94950719  0.42669423    -0.88200
O1211       O  0.51361195  0.96208909  0.53536504    -0.88400
O1212       O  0.97400404  0.94685350  0.60948804    -0.75400
Mg1213     Mg  0.56806870  0.56275190  0.43938214     1.58000
O1214       O  0.61157907  0.53137679  0.54010160    -0.82800
H1215       H  0.98736620  0.54849277  0.32132811    -0.06500
O1216       O  0.94985774  0.98840853  0.53743437    -0.88100
H1217       H  0.94261146  0.98575276  0.65157766    -0.06300
H1218       H  0.95631409  0.94387640  0.31180077    -0.06500
C1219       C  0.95522740  0.49971718  0.60325115     0.87000
C1220       C  0.50108428  0.54889953  0.37014913     0.87600
C1221       C  0.95550047  0.95590844  0.36258503     0.87700
H1222       H  0.51502127  0.95415744  0.64835447    -0.06500
O1223       O  0.55340066  0.52676048  0.61755890    -0.75500
Mg1224     Mg  0.93477836  0.94072977  0.52950379     1.58000
H1225       H  0.54659368  0.56044631  0.65665855    -0.06500
C1226       C  0.94452382  0.56777082  0.53083241     0.92700
O1227       O  0.89198366  0.97380509  0.43732485    -0.82700
C1228       C  0.87731213  0.94517230  0.44375734     0.92700
O1229       O  0.58328689  0.61302449  0.44660601    -0.82700
Mg1230     Mg  0.56119632  0.99582712  0.53620474     1.58200
O1231       O  0.93032731  0.54034256  0.50652249    -0.81100
O1232       O  0.53180483  0.92151208  0.43329865    -0.82800
C1233       C  0.58565551  0.70812689  0.47918952    -0.09200
C1234       C  0.61496796  0.72387727  0.44946518     0.07000
C1235       C  0.62853997  0.70777220  0.42047493    -0.02900
C1236       C  0.61255024  0.67601940  0.42150204    -0.07400
C1237       C  0.58289967  0.65976918  0.45156505     0.06200
C1238       C  0.56948578  0.67647564  0.48067936    -0.02400
Br1239     Br  0.53003754  0.65882003  0.52721841    -0.02100
H1240       H  0.57535183  0.72072957  0.50154590     0.10100
H1241       H  0.62366827  0.66408862  0.39996891     0.08100
Br1242     Br  0.66956300  0.72848183  0.38380717    -0.02500
C1243       C  0.82768475  0.89652103  0.44109125    -0.09200
C1244       C  0.84352624  0.92834328  0.43330759     0.07000
C1245       C  0.82626012  0.94312838  0.42274040    -0.02900
C1246       C  0.79440887  0.92626301  0.42420670    -0.07400
C1247       C  0.77917421  0.89495737  0.43545456     0.06200
C1248       C  0.79587529  0.87993335  0.44198537    -0.02400
Br1249     Br  0.77586006  0.83672530  0.45255800    -0.02100
H1250       H  0.83998899  0.88438489  0.44822693     0.10100
H1251       H  0.78132436  0.93762248  0.41743666     0.08100
Br1252     Br  0.84363352  0.98605951  0.40760679    -0.02500
C1253       C  0.60670925  0.93513080  0.48193589    -0.09200
C1254       C  0.58015685  0.92360808  0.43536620     0.07000
C1255       C  0.57278125  0.89872568  0.38561281    -0.02900
C1256       C  0.59096073  0.88517645  0.38628375    -0.07400
C1257       C  0.61660245  0.89589804  0.43568527     0.06200
C1258       C  0.62483944  0.92164618  0.48234783    -0.02400
Br1259     Br  0.66127750  0.94029674  0.54507512    -0.02100
H1260       H  0.61320487  0.95447642  0.51986570     0.10100
H1261       H  0.58468597  0.86569222  0.34910620     0.08100
Br1262     Br  0.53909094  0.88284119  0.31353087    -0.02500
C1263       C  0.60468987  0.67080295  0.97960795    -0.09200
C1264       C  0.57689661  0.65453709  0.93854180     0.07000
C1265       C  0.56725745  0.67086449  0.89103823    -0.02900
C1266       C  0.58450900  0.70266850  0.88903335    -0.07400
C1267       C  0.61125819  0.71876757  0.93388207     0.06200
C1268       C  0.62171490  0.70244982  0.97780538    -0.02400
Br1269     Br  0.65949764  0.72205892  0.03508842    -0.02100
H1270       H  0.61288850  0.65896182  0.01574606     0.10100
H1271       H  0.57655899  0.71500163  0.85403107     0.08100
Br1272     Br  0.53125876  0.65142970  0.82655848    -0.02500
C1273       C  0.78960863  0.88009184  0.91526554    -0.09200
C1274       C  0.77460314  0.89383588  0.94954736     0.07000
C1275       C  0.79181038  0.92161004  0.98910238    -0.02900
C1276       C  0.82354491  0.93501537  0.99470827    -0.07400
C1277       C  0.83881415  0.92088037  0.96261529     0.06200
C1278       C  0.82127995  0.89304679  0.92185847    -0.02400
Br1279     Br  0.83848416  0.87117859  0.87322826    -0.02100
H1280       H  0.77636719  0.85858488  0.88509337     0.10100
H1281       H  0.83620241  0.95628085  0.02624935     0.08100
Br1282     Br  0.77283917  0.94212318  0.03533878    -0.02500
C1283       C  0.61264336  0.90958607  0.90804621    -0.09200
C1284       C  0.60748956  0.88715410  0.96275089     0.07000
C1285       C  0.58526596  0.88042478  0.02035315    -0.02900
C1286       C  0.56986583  0.89671949  0.02340937    -0.07400
C1287       C  0.57569219  0.91962952  0.96998386     0.06200
C1288       C  0.59694502  0.92563589  0.91090258    -0.02400
Br1289     Br  0.60432880  0.95424499  0.82997282    -0.02100
H1290       H  0.62915119  0.91483715  0.86287816     0.10100
H1291       H  0.55344965  0.89168989  0.06883149     0.08100
Br1292     Br  0.57289756  0.84830255  0.09432256    -0.02500
C1293       C  0.64075295  0.83048307  0.64923579    -0.09200
C1294       C  0.66716889  0.83456057  0.61214873     0.07000
C1295       C  0.68736006  0.82921880  0.65790900    -0.02900
C1296       C  0.68537184  0.82877044  0.73874441    -0.07400
C1297       C  0.66218641  0.83105972  0.77663973     0.06200
C1298       C  0.63743852  0.82724935  0.72977380    -0.02400
Br1299     Br  0.59656698  0.81011923  0.76717237    -0.02100
H1300       H  0.62134267  0.82717750  0.61493956     0.10100
H1301       H  0.70111001  0.82466703  0.77208596     0.08100
Br1302     Br  0.71377494  0.81590382  0.61662774    -0.02500
C1303       C  0.63707483  0.82233169  0.15332228    -0.09200
C1304       C  0.66264976  0.82628570  0.11265688     0.07000
C1305       C  0.68463691  0.82287463  0.15548747    -0.02900
C1306       C  0.68572879  0.82577134  0.23622672    -0.07400
C1307       C  0.66382304  0.82958607  0.27617866     0.06200
C1308       C  0.63695597  0.82279222  0.23419902    -0.02400
Br1309     Br  0.59796803  0.80876276  0.28129717    -0.02100
H1310       H  0.61648156  0.81752203  0.12226898     0.10100
H1311       H  0.70274937  0.82316216  0.26795176     0.08100
Br1312     Br  0.70986504  0.80880258  0.11035984    -0.02500
C1313       C  0.88294987  0.58612486  0.58615825    -0.09200
C1314       C  0.89563203  0.61587809  0.55864365     0.07000
C1315       C  0.92485533  0.63004584  0.52653039    -0.02900
C1316       C  0.94056362  0.61415957  0.52010957    -0.07400
C1317       C  0.92757167  0.58395645  0.54487672     0.06200
C1318       C  0.89857281  0.57002283  0.57918633    -0.02400
Br1319     Br  0.87969098  0.52959893  0.61942236    -0.02100
H1320       H  0.86049357  0.57519750  0.61131714     0.10100
H1321       H  0.96269968  0.62521505  0.49331518     0.08100
Br1322     Br  0.94426298  0.67121014  0.49163277    -0.02500
C1323       C  0.87836776  0.79535897  0.57980117    -0.09200
C1324       C  0.89076487  0.77919645  0.54472873     0.07000
C1325       C  0.91804919  0.79534488  0.50333775    -0.02900
C1326       C  0.93196160  0.82689494  0.49613600    -0.07400
C1327       C  0.91924510  0.84327244  0.52928035     0.06200
C1328       C  0.89208409  0.82696349  0.57227699    -0.02400
Br1329     Br  0.87241760  0.84587419  0.62381536    -0.02100
H1330       H  0.85746120  0.78314495  0.61195659     0.10100
H1331       H  0.95274460  0.83859186  0.46327270     0.08100
Br1332     Br  0.93809594  0.77564514  0.45828634    -0.02500
C1333       C  0.70693679  0.62611233  0.55844265    -0.09200
C1334       C  0.72316188  0.61062724  0.55879426     0.07000
C1335       C  0.70733956  0.57882244  0.55642587    -0.02900
C1336       C  0.67553173  0.56281782  0.55112968    -0.07400
C1337       C  0.65886781  0.57812304  0.54754132     0.06200
C1338       C  0.67507441  0.61032227  0.55311399    -0.02400
Br1339     Br  0.65583891  0.63462898  0.55480727    -0.02100
H1340       H  0.71926672  0.65068059  0.56116166     0.10100
H1341       H  0.66394127  0.53828851  0.54715533     0.08100
Br1342     Br  0.72864346  0.55663997  0.55820638    -0.02500
C1343       C  0.88968732  0.56586771  0.03808716    -0.09200
C1344       C  0.92147004  0.57974523  0.04755065     0.07000
C1345       C  0.93865373  0.61152060  0.06081561    -0.02900
C1346       C  0.92388054  0.62849214  0.06317374    -0.07400
C1347       C  0.89236324  0.61447126  0.05162937     0.06200
C1348       C  0.87520087  0.58298149  0.03959916    -0.02400
Br1349     Br  0.83185180  0.56257623  0.02511081    -0.02100
H1350       H  0.87602583  0.54166154  0.02731756     0.10100
H1351       H  0.93697220  0.65276016  0.07341072     0.08100
Br1352     Br  0.98197998  0.63317712  0.07844011    -0.02500
C1353       C  0.89004693  0.82610078  0.03090370    -0.09200
C1354       C  0.91760731  0.84194481  0.07332663     0.07000
C1355       C  0.92726433  0.82502837  0.11822900    -0.02900
C1356       C  0.91053142  0.79320854  0.11582559    -0.07400
C1357       C  0.88405676  0.77758092  0.06966659     0.06200
C1358       C  0.87333475  0.79437046  0.02894552    -0.02400
Br1359     Br  0.83534820  0.77524627  0.97255573    -0.02100
H1360       H  0.88173254  0.83839482  0.99700692     0.10100
H1361       H  0.91852583  0.78051662  0.14914282     0.08100
Br1362     Br  0.96231821  0.84368441  0.18598566    -0.02500
C1363       C  0.67073248  0.56716009  0.08646564    -0.09200
C1364       C  0.65599613  0.58048448  0.04751246     0.07000
C1365       C  0.67380888  0.60908766  0.01249762    -0.02900
C1366       C  0.70556123  0.62368729  0.01707719    -0.07400
C1367       C  0.72026747  0.61055141  0.05645771     0.06200
C1368       C  0.70261521  0.58204008  0.09164079    -0.02400
Br1369     Br  0.72090791  0.56156753  0.14257707    -0.02100
H1370       H  0.65741518  0.54506992  0.11267795     0.10100
H1371       H  0.71898350  0.64539647  0.98915550     0.08100
Br1372     Br  0.65640911  0.62845140  0.95211553    -0.02500
C1373       C  0.85932190  0.68884740  0.85190125    -0.09200
C1374       C  0.83370978  0.66571736  0.88954035     0.07000
C1375       C  0.81445230  0.63956889  0.84430066    -0.02900
C1376       C  0.81558651  0.64118828  0.76346427    -0.07400
C1377       C  0.83725485  0.66747072  0.72529005     0.06200
C1378       C  0.86202251  0.68903962  0.77112784    -0.02400
Br1379     Br  0.90237994  0.71369145  0.73141205    -0.02100
H1380       H  0.87860245  0.70549576  0.88565425     0.10100
H1381       H  0.80051872  0.62096296  0.73032440     0.08100
Br1382     Br  0.79080979  0.59945556  0.88617745    -0.02500
C1383       C  0.82444574  0.68341518  0.26581973    -0.09200
C1384       C  0.83011549  0.66280778  0.22538578     0.07000
C1385       C  0.82690900  0.63762831  0.26778953    -0.02900
C1386       C  0.82890209  0.63930359  0.34876947    -0.07400
C1387       C  0.83074491  0.66419546  0.38923666     0.06200
C1388       C  0.82329588  0.68337755  0.34659081    -0.02400
Br1389     Br  0.80591860  0.70575278  0.39192864    -0.02100
H1390       H  0.81893830  0.69843283  0.23447233     0.10100
H1391       H  0.82653889  0.61990642  0.38006465     0.08100
Br1392     Br  0.81265285  0.59817540  0.22214022    -0.02500
loop_ 
_geom_bond_atom_site_label_1 
_geom_bond_atom_site_label_2 
_geom_bond_distance 
_geom_bond_site_symmetry_2 
_ccdc_geom_bond_type 
C1            C3   1.538       .  S
C1            C5   1.546       .  S
C1            C4   1.530       .  S
C1          C340   1.526       .  S
C2            C6   1.531   1_556  S
C2            C8   1.550   1_556  S
C2            C7   1.542   1_556  S
C2          C330   1.531       .  S
C3           C11   1.379       .  A
C3            C6   1.391       .  A
C4           C15   1.376       .  A
C4            C7   1.391       .  A
C5           C19   1.380       .  A
C5            C8   1.398       .  A
C6            C9   1.375   1_554  A
C7           C13   1.380   1_554  A
C8           C16   1.383   1_554  A
C9           N10   1.354   1_556  A
C9           H22   1.083       .  S
N10          C11   1.355       .  A
N10         C303   1.428       .  S
C11          H12   1.082       .  S
C13          N14   1.359   1_556  A
C13          H23   1.082       .  S
N14          C15   1.356       .  A
N14         C323   1.437       .  S
C15          H21   1.082       .  S
C16          N17   1.360   1_556  A
C16          H18   1.081       .  S
N17          C19   1.356       .  A
N17         C313   1.441       .  S
C19          H20   1.082       .  S
C24          C26   1.542       .  S
C24          C28   1.529       .  S
C24          C27   1.540       .  S
C24         C343   1.527       .  S
C25          C29   1.539       .  S
C25          C31   1.545       .  S
C25          C30   1.552       .  S
C25         C333   1.531       .  S
C26          C34   1.380       .  A
C26          C29   1.395       .  A
C27          C38   1.377       .  A
C27          C30   1.396       .  A
C28          C42   1.376       .  A
C28          C31   1.391       .  A
C29          C32   1.380       .  A
C30          C36   1.387       .  A
C31          C39   1.384       .  A
C32          N33   1.357       .  A
C32          H45   1.082       .  S
N33          C34   1.357       .  A
N33         C270   1.435       .  S
C34          H35   1.082       .  S
C36          N37   1.360       .  A
C36          H46   1.082       .  S
N37          C38   1.355       .  A
N37         C280   1.442       .  S
C38          H44   1.082       .  S
C39          N40   1.356       .  A
C39          H41   1.082       .  S
N40          C42   1.354       .  A
N40         C290   1.431       .  S
C42          H43   1.083       .  S
C47          C49   1.540   1_554  S
C47          C51   1.529   1_554  S
C47          C50   1.537   1_554  S
C47         C260   1.527       .  S
C48          C52   1.551       .  S
C48          C54   1.535       .  S
C48          C53   1.552       .  S
C48         C253   1.534       .  S
C49          C57   1.376   1_556  A
C49          C52   1.396       .  A
C50          C61   1.379   1_556  A
C50          C53   1.395       .  A
C51          C65   1.374   1_556  A
C51          C54   1.387       .  A
C52          C55   1.384       .  A
C53          C59   1.384       .  A
C54          C62   1.380       .  A
C55          N56   1.362       .  A
C55          H68   1.081       .  S
N56          C57   1.354   1_556  A
N56         C240   1.446       .  S
C57          H58   1.080       .  S
C59          N60   1.357       .  A
C59          H69   1.082       .  S
N60          C61   1.355   1_556  A
N60         C230   1.437       .  S
C61          H67   1.082       .  S
C62          N63   1.360       .  A
C62          H64   1.082       .  S
N63          C65   1.359   1_556  A
N63         C223   1.440       .  S
C65          H66   1.082       .  S
C70          C72   1.540       .  S
C70          C74   1.541       .  S
C70          C73   1.522       .  S
C70         C263   1.525       .  S
C71          C75   1.550       .  S
C71          C77   1.550       .  S
C71          C76   1.531       .  S
C71         C250   1.534       .  S
C72          C80   1.378       .  A
C72          C75   1.396       .  A
C73          C84   1.372       .  A
C73          C76   1.385       .  A
C74          C88   1.378       .  A
C74          C77   1.402       .  A
C75          C78   1.382       .  A
C76          C82   1.377       .  A
C77          C85   1.382       .  A
C78          N79   1.360       .  A
C78          H91   1.081       .  S
N79          C80   1.356       .  A
N79         C213   1.441       .  S
C80          H81   1.082       .  S
C82          N83   1.357       .  A
C82          H92   1.082       .  S
N83          C84   1.353       .  A
N83         C190   1.429       .  S
C84          H90   1.083       .  S
C85          N86   1.357       .  A
C85          H87   1.082       .  S
N86          C88   1.351       .  A
N86         C203   1.430       .  S
C88          H89   1.082       .  S
O93         Mg95   2.156       .  S
O93        Mg449   2.163   1_554  S
O93         C476   1.236       .  S
C94         H133   1.081       .  S
C94         O107   1.235       .  S
C94         O131   1.269       .  A
Mg95        O820   2.157   1_454  S
Mg95        O139   2.315       .  S
Mg95        O831   2.282   1_455  S
Mg95        O802   2.302   1_455  S
O96        Mg121   2.132       .  S
O96        Mg834   2.159   1_454  S
O96         C813   1.236       .  S
O97         C128   1.270   1_545  A
O97        Mg121   2.302       .  S
C98         O100   1.273       .  A
C98         O112   1.276       .  A
C98         C233   1.494       .  S
O99         C127   1.270   1_455  A
O99        Mg449   2.301       .  S
O100       Mg132   2.279       .  S
Mg101       O107   2.138       .  S
Mg101       O441   2.163   1_546  S
Mg101       O103   2.326   1_556  S
Mg101       O447   2.301   1_545  S
Mg101       O463   2.249   1_545  S
C102        O140   1.273       .  A
C102        O108   1.272       .  A
C102        C300   1.481       .  S
O103        C110   1.277       .  A
H104        C813   1.081       .  S
C105        H478   1.081       .  S
C105        O467   1.235       .  S
C105        O120   1.269       .  A
O106        C129   1.270       .  A
O106       Mg791   2.302       .  S
O107       Mg121   2.149   1_556  S
O108       Mg138   2.286   1_554  S
C109        O122   1.271       .  A
C109        O114   1.275       .  A
C109        C220   1.489       .  S
C110        O137   1.269       .  A
C110        C320   1.479       .  S
Mg111       O118   2.145       .  S
Mg111       O467   2.160   1_554  S
Mg111       O112   2.310   1_554  S
Mg111       O461   2.295       .  S
Mg111       O488   2.262       .  S
O113        C117   1.269       .  A
O113       Mg459   2.295   1_545  S
O114       Mg121   2.300   1_556  S
O115        C134   1.270       .  A
O115       Mg449   2.249       .  S
O116        C136   1.276       .  A
O116       Mg132   2.305   1_554  S
C117        H800   1.081       .  S
C117        O792   1.236       .  S
O118       Mg132   2.153   1_554  S
O118        C129   1.236       .  S
O119       Mg138   2.144       .  S
O119       Mg459   2.160   1_546  S
O119        C453   1.235   1_545  S
O120       Mg132   2.295       .  S
Mg121       O137   2.243       .  S
O122       Mg834   2.268   1_455  S
H123        C476   1.081       .  S
O124       Mg132   2.153       .  S
O124       Mg791   2.157   1_556  S
O124        C823   1.236       .  S
H125        C823   1.081       .  S
H126        C129   1.081       .  S
C127        H821   1.081       .  S
C127        O820   1.236       .  S
C128        H471   1.081       .  S
C128        O441   1.236       .  S
H130        C453   1.081   1_545  S
O131       Mg834   2.295   1_455  S
C134        O139   1.277   1_556  A
C134        C243   1.479       .  S
O135        C136   1.274       .  A
O135       Mg791   2.281       .  S
C136        C310   1.491       .  S
Mg138       O792   2.159   1_556  S
Mg138       O818   2.268       .  S
Mg138       O827   2.295       .  S
O140       Mg459   2.262   1_545  S
O141       Mg143   2.138       .  S
O141       Mg845   2.150       .  S
O141        C872   1.236       .  S
C142        H181   1.081       .  S
C142        O155   1.235       .  S
C142        O179   1.268       .  A
Mg143       O520   2.154   1_545  S
Mg143       O187   2.322       .  S
Mg143       O531   2.244   1_545  S
Mg143       O502   2.305   1_545  S
O144       Mg169   2.148       .  S
O144       Mg534   2.164   1_545  S
O144        C513   1.237       .  S
O145        C176   1.269       .  A
O145       Mg169   2.298       .  S
C146        O148   1.273       .  A
C146        O160   1.280       .  A
C146        C283   1.497       .  S
O147        C175   1.270   1_545  A
O147       Mg845   2.299       .  S
O148       Mg180   2.276       .  S
Mg149       O155   2.125       .  S
Mg149       O837   2.150   1_455  S
Mg149       O151   2.284       .  S
Mg149       O843   2.299   1_455  S
Mg149       O859   2.249   1_455  S
C150        O188   1.275       .  A
C150        O156   1.274       .  A
C150        C210   1.487       .  S
O151        C158   1.270       .  A
H152        C513   1.081       .  S
C153        H874   1.081       .  S
C153        O863   1.235       .  S
C153        O168   1.269       .  A
O154        C177   1.271       .  A
O154       Mg491   2.305       .  S
O155       Mg169   2.155       .  S
O156       Mg186   2.283       .  S
C157        O170   1.274       .  A
C157        O162   1.272       .  A
C157        C293   1.490       .  S
C158        O185   1.274       .  A
C158        C193   1.490       .  S
Mg159       O166   2.154       .  S
Mg159       O863   2.157       .  S
Mg159       O160   2.330       .  S
Mg159       O857   2.304       .  S
Mg159       O884   2.291       .  S
O161        C165   1.271       .  A
O161       Mg855   2.304   1_455  S
O162       Mg169   2.290       .  S
O163        C182   1.270       .  A
O163       Mg845   2.248       .  S
O164        C184   1.278       .  A
O164       Mg180   2.315       .  S
C165        H500   1.081       .  S
C165        O492   1.237       .  S
O166       Mg180   2.160       .  S
O166        C177   1.236       .  S
O167       Mg186   2.150       .  S
O167       Mg855   2.157   1_455  S
O167        C849   1.235       .  S
O168       Mg180   2.298       .  S
Mg169       O185   2.276       .  S
O170       Mg534   2.275   1_545  S
H171        C872   1.081       .  S
O172       Mg180   2.153       .  S
O172       Mg491   2.154       .  S
O172        C523   1.236       .  S
H173        C523   1.081       .  S
H174        C177   1.081       .  S
C175        H521   1.081       .  S
C175        O520   1.236       .  S
C176        H867   1.081   1_455  S
C176        O837   1.236   1_455  S
H178        C849   1.081       .  S
O179       Mg534   2.288   1_545  S
C182        O187   1.276       .  A
C182        C273   1.481       .  S
O183        C184   1.268       .  A
O183       Mg491   2.244       .  S
C184        C200   1.492       .  S
Mg186       O492   2.164       .  S
Mg186       O518   2.275       .  S
Mg186       O527   2.288       .  S
O188       Mg855   2.291   1_455  S
C189        C190   1.393       .  A
C189        C194   1.395       .  A
C189        H196   1.084       .  S
C190        C191   1.403       .  A
C191        C192   1.399       .  A
C191       Br198   1.917       .  S
C192        C193   1.410       .  A
C192        H197   1.083       .  S
C193        C194   1.423       .  A
C194       Br195   1.922       .  S
C199        C200   1.410       .  A
C199        C204   1.397       .  A
C199        H206   1.083       .  S
C200        C201   1.424       .  A
C201        C202   1.400       .  A
C201       Br208   1.924       .  S
C202        C203   1.395       .  A
C202        H207   1.083       .  S
C203        C204   1.402       .  A
C204       Br205   1.916       .  S
C209        C210   1.409       .  A
C209        C214   1.397       .  A
C209        H216   1.083       .  S
C210        C211   1.412       .  A
C211        C212   1.402       .  A
C211       Br218   1.919       .  S
C212        C213   1.407       .  A
C212        H217   1.083       .  S
C213        C214   1.407       .  A
C214       Br215   1.919       .  S
C219        C220   1.407       .  A
C219        C224   1.396       .  A
C219        H226   1.083   1_556  S
C220        C221   1.416       .  A
C221        C222   1.404       .  A
C221       Br228   1.921       .  S
C222        C223   1.404       .  A
C222        H227   1.083       .  S
C223        C224   1.408       .  A
C224       Br225   1.919   1_556  S
C229        C230   1.401       .  A
C229        C234   1.401       .  A
C229        H236   1.083       .  S
C230        C231   1.404       .  A
C231        C232   1.401       .  A
C231       Br238   1.917   1_556  S
C232        C233   1.411       .  A
C232        H237   1.083   1_556  S
C233        C234   1.418       .  A
C234       Br235   1.922       .  S
C239        C240   1.406       .  A
C239        C244   1.400       .  A
C239        H246   1.082       .  S
C240        C241   1.420   1_556  A
C241        C242   1.398       .  A
C241       Br248   1.923       .  S
C242        C243   1.401   1_554  A
C242        H247   1.084       .  S
C243        C244   1.411       .  A
C244       Br245   1.920       .  S
C249        C250   1.411       .  A
C249        C254   1.402       .  A
C249        H256   1.081       .  S
C250        C251   1.418       .  A
C251        C252   1.399       .  A
C251       Br258   1.922       .  S
C252        C253   1.407       .  A
C252        H257   1.082       .  S
C253        C254   1.415       .  A
C254       Br255   1.923       .  S
C259        C260   1.406       .  A
C259        C264   1.395       .  A
C259        H266   1.081       .  S
C260        C261   1.414       .  A
C261        C262   1.398       .  A
C261       Br268   1.923       .  S
C262        C263   1.408       .  A
C262        H267   1.081       .  S
C263        C264   1.417       .  A
C264       Br265   1.925       .  S
C269        C270   1.403       .  A
C269        C274   1.403       .  A
C269        H276   1.083       .  S
C270        C271   1.405       .  A
C271        C272   1.397       .  A
C271       Br278   1.918       .  S
C272        C273   1.406       .  A
C272        H277   1.082       .  S
C273        C274   1.412       .  A
C274       Br275   1.919       .  S
C279        C280   1.402       .  A
C279        C284   1.404       .  A
C279        H286   1.083       .  S
C280        C281   1.409       .  A
C281        C282   1.400       .  A
C281       Br288   1.919       .  S
C282        C283   1.409       .  A
C282        H287   1.083       .  S
C283        C284   1.420       .  A
C284       Br285   1.922       .  S
C289        C290   1.397       .  A
C289        C294   1.401       .  A
C289        H296   1.083       .  S
C290        C291   1.402       .  A
C291        C292   1.398       .  A
C291       Br298   1.916       .  S
C292        C293   1.410       .  A
C292        H297   1.083       .  S
C293        C294   1.421       .  A
C294       Br295   1.923       .  S
C299        C300   1.406       .  A
C299        C304   1.394       .  A
C299        H306   1.083       .  S
C300        C301   1.418       .  A
C301        C302   1.401       .  A
C301       Br308   1.922       .  S
C302        C303   1.398       .  A
C302        H307   1.083       .  S
C303        C304   1.403       .  A
C304       Br305   1.917       .  S
C309        C310   1.409       .  A
C309        C314   1.399       .  A
C309        H316   1.083   1_554  S
C310        C311   1.415       .  A
C311        C312   1.403       .  A
C311       Br318   1.920       .  S
C312        C313   1.404       .  A
C312        H317   1.083       .  S
C313        C314   1.408       .  A
C314       Br315   1.919   1_554  S
C319        C320   1.404       .  A
C319        C324   1.402       .  A
C319        H326   1.083       .  S
C320        C321   1.414       .  A
C321        C322   1.397       .  A
C321       Br328   1.923   1_554  S
C322        C323   1.399       .  A
C322        H327   1.083   1_554  S
C323        C324   1.411       .  A
C324       Br325   1.918       .  S
C329        C330   1.409       .  A
C329        C334   1.401       .  A
C329        H336   1.081       .  S
C330        C331   1.418       .  A
C331        C332   1.397       .  A
C331       Br338   1.925       .  S
C332        C333   1.407       .  A
C332        H337   1.082       .  S
C333        C334   1.414       .  A
C334       Br335   1.923       .  S
C339        C340   1.405       .  A
C339        C344   1.395       .  A
C339        H346   1.081       .  S
C340        C341   1.416       .  A
C341        C342   1.399       .  A
C341       Br348   1.924       .  S
C342        C343   1.407       .  A
C342        H347   1.080       .  S
C343        C344   1.417       .  A
C344       Br345   1.925       .  S
C349        C351   1.538       .  S
C349        C353   1.546       .  S
C349        C352   1.530       .  S
C349        C688   1.526       .  S
C350        C354   1.531   1_556  S
C350        C356   1.550   1_556  S
C350        C355   1.542   1_556  S
C350        C678   1.531       .  S
C351        C359   1.379       .  A
C351        C354   1.392       .  A
C352        C363   1.376       .  A
C352        C355   1.391       .  A
C353        C367   1.380       .  A
C353        C356   1.398       .  A
C354        C357   1.375   1_554  A
C355        C361   1.380   1_554  A
C356        C364   1.383   1_554  A
C357        N358   1.354   1_556  A
C357        H370   1.083       .  S
N358        C359   1.355       .  A
N358        C651   1.428       .  S
C359        H360   1.082       .  S
C361        N362   1.359   1_556  A
C361        H371   1.082       .  S
N362        C363   1.356       .  A
N362        C671   1.437       .  S
C363        H369   1.082       .  S
C364        N365   1.360   1_556  A
C364        H366   1.081       .  S
N365        C367   1.356       .  A
N365        C661   1.441       .  S
C367        H368   1.082       .  S
C372        C374   1.542       .  S
C372        C376   1.529       .  S
C372        C375   1.540       .  S
C372        C691   1.527       .  S
C373        C377   1.538       .  S
C373        C379   1.545       .  S
C373        C378   1.552       .  S
C373        C681   1.531       .  S
C374        C382   1.380       .  A
C374        C377   1.395       .  A
C375        C386   1.377       .  A
C375        C378   1.396       .  A
C376        C390   1.376       .  A
C376        C379   1.391       .  A
C377        C380   1.380       .  A
C378        C384   1.387       .  A
C379        C387   1.384       .  A
C380        N381   1.357       .  A
C380        H393   1.082       .  S
N381        C382   1.357       .  A
N381        C618   1.435       .  S
C382        H383   1.082       .  S
C384        N385   1.360       .  A
C384        H394   1.082       .  S
N385        C386   1.355       .  A
N385        C628   1.442       .  S
C386        H392   1.082       .  S
C387        N388   1.356       .  A
C387        H389   1.082       .  S
N388        C390   1.354       .  A
N388        C638   1.431       .  S
C390        H391   1.083       .  S
C395        C397   1.540   1_554  S
C395        C399   1.529   1_554  S
C395        C398   1.537   1_554  S
C395        C608   1.527       .  S
C396        C400   1.551       .  S
C396        C402   1.535       .  S
C396        C401   1.552       .  S
C396        C601   1.534       .  S
C397        C405   1.376   1_556  A
C397        C400   1.396       .  A
C398        C409   1.379   1_556  A
C398        C401   1.395       .  A
C399        C413   1.374   1_556  A
C399        C402   1.387       .  A
C400        C403   1.384       .  A
C401        C407   1.384       .  A
C402        C410   1.380       .  A
C403        N404   1.362       .  A
C403        H416   1.081       .  S
N404        C405   1.354   1_556  A
N404        C588   1.446       .  S
C405        H406   1.080       .  S
C407        N408   1.357       .  A
C407        H417   1.082       .  S
N408        C409   1.355   1_556  A
N408        C578   1.437       .  S
C409        H415   1.082       .  S
C410        N411   1.360       .  A
C410        H412   1.082       .  S
N411        C413   1.359   1_556  A
N411        C571   1.440       .  S
C413        H414   1.082       .  S
C418        C420   1.540       .  S
C418        C422   1.541       .  S
C418        C421   1.522       .  S
C418        C611   1.525       .  S
C419        C423   1.550       .  S
C419        C425   1.550       .  S
C419        C424   1.531       .  S
C419        C598   1.534       .  S
C420        C428   1.378       .  A
C420        C423   1.396       .  A
C421        C432   1.372       .  A
C421        C424   1.385       .  A
C422        C436   1.378       .  A
C422        C425   1.402       .  A
C423        C426   1.382       .  A
C424        C430   1.377       .  A
C425        C433   1.382       .  A
C426        N427   1.360       .  A
C426        H439   1.081       .  S
N427        C428   1.356       .  A
N427        C561   1.441       .  S
C428        H429   1.082       .  S
C430        N431   1.357       .  A
C430        H440   1.082       .  S
N431        C432   1.353       .  A
N431        C538   1.429       .  S
C432        H438   1.083       .  S
C433        N434   1.357       .  A
C433        H435   1.082       .  S
N434        C436   1.351       .  A
N434        C551   1.430       .  S
C436        H437   1.082       .  S
O441       Mg443   2.156       .  S
C442        H481   1.081       .  S
C442        O455   1.235       .  S
C442        O479   1.269       .  A
Mg443      O1168   2.157   1_454  S
Mg443       O487   2.315       .  S
Mg443      O1179   2.282   1_455  S
Mg443      O1150   2.302   1_455  S
O444      Mg1182   2.159   1_454  S
O444       Mg469   2.132       .  S
O444       C1161   1.236       .  S
O445        C476   1.270       .  A
O445       Mg469   2.302       .  S
C446        O448   1.273       .  A
C446        O460   1.276       .  A
C446        C581   1.494       .  S
O447        C475   1.270   1_455  A
O448       Mg480   2.279       .  S
Mg449       O455   2.138       .  S
Mg449       O451   2.326   1_556  S
C450        O488   1.273       .  A
C450        O456   1.272       .  A
C450        C648   1.481       .  S
O451        C458   1.277       .  A
H452       C1161   1.081       .  S
C453        O468   1.269       .  A
O454        C477   1.270       .  A
O454      Mg1139   2.302       .  S
O455       Mg469   2.149   1_556  S
O456       Mg486   2.286   1_554  S
C457        O470   1.271       .  A
C457        O462   1.275       .  A
C457        C568   1.489       .  S
C458        O485   1.269       .  A
C458        C668   1.479       .  S
Mg459       O466   2.145       .  S
Mg459       O460   2.310   1_554  S
O461        C465   1.269       .  A
O462       Mg469   2.300   1_556  S
O463        C482   1.270       .  A
O464        C484   1.276       .  A
O464       Mg480   2.305   1_554  S
C465       H1148   1.081       .  S
C465       O1140   1.236       .  S
O466       Mg480   2.153   1_554  S
O466        C477   1.236       .  S
O467       Mg486   2.145       .  S
O468       Mg480   2.295       .  S
Mg469       O485   2.243       .  S
O470      Mg1182   2.268   1_455  S
O472      Mg1139   2.157   1_556  S
O472       Mg480   2.153       .  S
O472       C1171   1.236       .  S
H473       C1171   1.081       .  S
H474        C477   1.081       .  S
C475       H1169   1.081       .  S
C475       O1168   1.236       .  S
O479      Mg1182   2.295   1_455  S
C482        O487   1.277   1_556  A
C482        C591   1.479       .  S
O483        C484   1.274       .  A
O483      Mg1139   2.281       .  S
C484        C658   1.491       .  S
Mg486      O1140   2.159   1_556  S
Mg486      O1166   2.268       .  S
Mg486      O1175   2.295       .  S
O489       Mg491   2.138       .  S
O489      Mg1193   2.150       .  S
O489       C1220   1.236       .  S
C490        H529   1.081       .  S
C490        O503   1.235       .  S
C490        O527   1.268       .  A
Mg491       O535   2.322       .  S
O492       Mg517   2.148       .  S
O493        C524   1.269       .  A
O493       Mg517   2.298       .  S
C494        O496   1.273       .  A
C494        O508   1.280       .  A
C494        C631   1.497       .  S
O495        C523   1.270       .  A
O495      Mg1193   2.299       .  S
O496       Mg528   2.276       .  S
Mg497      O1185   2.150   1_455  S
Mg497       O503   2.125       .  S
Mg497      O1191   2.299   1_455  S
Mg497      O1207   2.249   1_455  S
Mg497       O499   2.284       .  S
C498        O536   1.275       .  A
C498        O504   1.274       .  A
C498        C558   1.487       .  S
O499        C506   1.270       .  A
C501       H1222   1.081       .  S
C501       O1211   1.235       .  S
C501        O516   1.269       .  A
O502        C525   1.271       .  A
O503       Mg517   2.155       .  S
O504       Mg534   2.282       .  S
C505        O518   1.274       .  A
C505        O510   1.272       .  A
C505        C641   1.490       .  S
C506        O533   1.274       .  A
C506        C541   1.490       .  S
Mg507       O514   2.154       .  S
Mg507      O1211   2.157       .  S
Mg507       O508   2.330       .  S
Mg507      O1205   2.304       .  S
Mg507      O1232   2.291       .  S
O509        C513   1.271   1_565  A
O509      Mg1203   2.304   1_455  S
O510       Mg517   2.290       .  S
O511        C530   1.270       .  A
O511      Mg1193   2.249       .  S
O512        C532   1.278       .  A
O512       Mg528   2.315       .  S
O514       Mg528   2.160       .  S
O514        C525   1.236       .  S
O515      Mg1203   2.157   1_455  S
O515       Mg534   2.150       .  S
O515       C1197   1.235       .  S
O516       Mg528   2.297       .  S
Mg517       O533   2.276       .  S
H519       C1220   1.081       .  S
O520       Mg528   2.153       .  S
H522        C525   1.081       .  S
C524       H1215   1.081   1_455  S
C524       O1185   1.236   1_455  S
H526       C1197   1.081       .  S
C530        O535   1.276       .  A
C530        C621   1.481       .  S
O531        C532   1.268       .  A
C532        C548   1.492       .  S
O536      Mg1203   2.291   1_455  S
C537        C538   1.393       .  A
C537        C542   1.395       .  A
C537        H544   1.084       .  S
C538        C539   1.403       .  A
C539        C540   1.399       .  A
C539       Br546   1.917       .  S
C540        C541   1.410       .  A
C540        H545   1.083       .  S
C541        C542   1.423       .  A
C542       Br543   1.922       .  S
C547        C548   1.410       .  A
C547        C552   1.397       .  A
C547        H554   1.083       .  S
C548        C549   1.424       .  A
C549        C550   1.400       .  A
C549       Br556   1.924       .  S
C550        C551   1.395       .  A
C550        H555   1.083       .  S
C551        C552   1.402       .  A
C552       Br553   1.916       .  S
C557        C558   1.409       .  A
C557        C562   1.397       .  A
C557        H564   1.083       .  S
C558        C559   1.412       .  A
C559        C560   1.402       .  A
C559       Br566   1.919       .  S
C560        C561   1.407       .  A
C560        H565   1.083       .  S
C561        C562   1.407       .  A
C562       Br563   1.919       .  S
C567        C568   1.407       .  A
C567        C572   1.396       .  A
C567        H574   1.083   1_556  S
C568        C569   1.416       .  A
C569        C570   1.404       .  A
C569       Br576   1.921       .  S
C570        C571   1.404       .  A
C570        H575   1.083       .  S
C571        C572   1.408       .  A
C572       Br573   1.919   1_556  S
C577        C578   1.401       .  A
C577        C582   1.401       .  A
C577        H584   1.083       .  S
C578        C579   1.404       .  A
C579        C580   1.401       .  A
C579       Br586   1.917   1_556  S
C580        C581   1.411       .  A
C580        H585   1.083   1_556  S
C581        C582   1.418       .  A
C582       Br583   1.922       .  S
C587        C588   1.406       .  A
C587        C592   1.400       .  A
C587        H594   1.082       .  S
C588        C589   1.420   1_556  A
C589        C590   1.398       .  A
C589       Br596   1.923       .  S
C590        C591   1.401   1_554  A
C590        H595   1.084       .  S
C591        C592   1.411       .  A
C592       Br593   1.920       .  S
C597        C598   1.411       .  A
C597        C602   1.401       .  A
C597        H604   1.081       .  S
C598        C599   1.418       .  A
C599        C600   1.399       .  A
C599       Br606   1.922       .  S
C600        C601   1.407       .  A
C600        H605   1.082       .  S
C601        C602   1.415       .  A
C602       Br603   1.923       .  S
C607        C608   1.406       .  A
C607        C612   1.395       .  A
C607        H614   1.081       .  S
C608        C609   1.414       .  A
C609        C610   1.398       .  A
C609       Br616   1.923       .  S
C610        C611   1.408       .  A
C610        H615   1.081       .  S
C611        C612   1.417       .  A
C612       Br613   1.925       .  S
C617        C618   1.403       .  A
C617        C622   1.403       .  A
C617        H624   1.083       .  S
C618        C619   1.405       .  A
C619        C620   1.397       .  A
C619       Br626   1.918       .  S
C620        C621   1.406       .  A
C620        H625   1.082       .  S
C621        C622   1.412       .  A
C622       Br623   1.919       .  S
C627        C628   1.402       .  A
C627        C632   1.404       .  A
C627        H634   1.083       .  S
C628        C629   1.409       .  A
C629        C630   1.400       .  A
C629       Br636   1.919       .  S
C630        C631   1.409       .  A
C630        H635   1.083       .  S
C631        C632   1.420       .  A
C632       Br633   1.922       .  S
C637        C638   1.397       .  A
C637        C642   1.401       .  A
C637        H644   1.083       .  S
C638        C639   1.402       .  A
C639        C640   1.398       .  A
C639       Br646   1.916       .  S
C640        C641   1.410       .  A
C640        H645   1.083       .  S
C641        C642   1.421       .  A
C642       Br643   1.923       .  S
C647        C648   1.406       .  A
C647        C652   1.394       .  A
C647        H654   1.083       .  S
C648        C649   1.418       .  A
C649        C650   1.401       .  A
C649       Br656   1.922       .  S
C650        C651   1.398       .  A
C650        H655   1.083       .  S
C651        C652   1.403       .  A
C652       Br653   1.917       .  S
C657        C658   1.409       .  A
C657        C662   1.399       .  A
C657        H664   1.083   1_554  S
C658        C659   1.415       .  A
C659        C660   1.403       .  A
C659       Br666   1.920       .  S
C660        C661   1.405       .  A
C660        H665   1.083       .  S
C661        C662   1.408       .  A
C662       Br663   1.919   1_554  S
C667        C668   1.404       .  A
C667        C672   1.402       .  A
C667        H674   1.083       .  S
C668        C669   1.414       .  A
C669        C670   1.397       .  A
C669       Br676   1.923   1_554  S
C670        C671   1.399       .  A
C670        H675   1.083   1_554  S
C671        C672   1.411       .  A
C672       Br673   1.918       .  S
C677        C678   1.409       .  A
C677        C682   1.401       .  A
C677        H684   1.081       .  S
C678        C679   1.418       .  A
C679        C680   1.397       .  A
C679       Br686   1.925       .  S
C680        C681   1.407       .  A
C680        H685   1.082       .  S
C681        C682   1.414       .  A
C682       Br683   1.923       .  S
C687        C688   1.405       .  A
C687        C692   1.395       .  A
C687        H694   1.081       .  S
C688        C689   1.416       .  A
C689        C690   1.399       .  A
C689       Br696   1.924       .  S
C690        C691   1.407       .  A
C690        H695   1.080       .  S
C691        C692   1.417       .  A
C692       Br693   1.925       .  S
C697        C699   1.538       .  S
C697        C701   1.546       .  S
C697        C700   1.530       .  S
C697       C1036   1.526       .  S
C698        C702   1.531   1_556  S
C698        C704   1.550   1_556  S
C698        C703   1.542   1_556  S
C698       C1026   1.531       .  S
C699        C707   1.379       .  A
C699        C702   1.391       .  A
C700        C711   1.376       .  A
C700        C703   1.391       .  A
C701        C715   1.380       .  A
C701        C704   1.398       .  A
C702        C705   1.375   1_554  A
C703        C709   1.380   1_554  A
C704        C712   1.383   1_554  A
C705        N706   1.354   1_556  A
C705        H718   1.083       .  S
N706        C707   1.355       .  A
N706        C999   1.428       .  S
C707        H708   1.082       .  S
C709        N710   1.359   1_556  A
C709        H719   1.082       .  S
N710        C711   1.356       .  A
N710       C1019   1.437       .  S
C711        H717   1.082       .  S
C712        N713   1.360   1_556  A
C712        H714   1.081       .  S
N713        C715   1.356       .  A
N713       C1009   1.441       .  S
C715        H716   1.082       .  S
C720        C722   1.542       .  S
C720        C724   1.529       .  S
C720        C723   1.540       .  S
C720       C1039   1.527       .  S
C721        C725   1.538       .  S
C721        C727   1.545       .  S
C721        C726   1.552       .  S
C721       C1029   1.531       .  S
C722        C730   1.380       .  A
C722        C725   1.395       .  A
C723        C734   1.377       .  A
C723        C726   1.395       .  A
C724        C738   1.376       .  A
C724        C727   1.391       .  A
C725        C728   1.380       .  A
C726        C732   1.387       .  A
C727        C735   1.384       .  A
C728        N729   1.357       .  A
C728        H741   1.082       .  S
N729        C730   1.357       .  A
N729        C966   1.435       .  S
C730        H731   1.082       .  S
C732        N733   1.360       .  A
C732        H742   1.082       .  S
N733        C734   1.355       .  A
N733        C976   1.442       .  S
C734        H740   1.082       .  S
C735        N736   1.356       .  A
C735        H737   1.082       .  S
N736        C738   1.354       .  A
N736        C986   1.431       .  S
C738        H739   1.083       .  S
C743        C745   1.540   1_554  S
C743        C747   1.529   1_554  S
C743        C746   1.537   1_554  S
C743        C956   1.527       .  S
C744        C748   1.551       .  S
C744        C750   1.535       .  S
C744        C749   1.552       .  S
C744        C949   1.533       .  S
C745        C753   1.375   1_556  A
C745        C748   1.396       .  A
C746        C757   1.379   1_556  A
C746        C749   1.395       .  A
C747        C761   1.374   1_556  A
C747        C750   1.387       .  A
C748        C751   1.384       .  A
C749        C755   1.384       .  A
C750        C758   1.380       .  A
C751        N752   1.362       .  A
C751        H764   1.081       .  S
N752        C753   1.354   1_556  A
N752        C936   1.446       .  S
C753        H754   1.080       .  S
C755        N756   1.357       .  A
C755        H765   1.082       .  S
N756        C757   1.355   1_556  A
N756        C926   1.437       .  S
C757        H763   1.082       .  S
C758        N759   1.360       .  A
C758        H760   1.082       .  S
N759        C761   1.359   1_556  A
N759        C919   1.440       .  S
C761        H762   1.082       .  S
C766        C768   1.539       .  S
C766        C770   1.541       .  S
C766        C769   1.521       .  S
C766        C959   1.525       .  S
C767        C771   1.550       .  S
C767        C773   1.550       .  S
C767        C772   1.531       .  S
C767        C946   1.534       .  S
C768        C776   1.378       .  A
C768        C771   1.396       .  A
C769        C780   1.372       .  A
C769        C772   1.385       .  A
C770        C784   1.378       .  A
C770        C773   1.402       .  A
C771        C774   1.383       .  A
C772        C778   1.377       .  A
C773        C781   1.382       .  A
C774        N775   1.360       .  A
C774        H787   1.081       .  S
N775        C776   1.356       .  A
N775        C909   1.441       .  S
C776        H777   1.082       .  S
C778        N779   1.357       .  A
C778        H788   1.082       .  S
N779        C780   1.353       .  A
N779        C886   1.429       .  S
C780        H786   1.083       .  S
C781        N782   1.357       .  A
C781        H783   1.082       .  S
N782        C784   1.351       .  A
N782        C899   1.430       .  S
C784        H785   1.082       .  S
O789       Mg791   2.156       .  S
O789      Mg1145   2.163   1_554  S
O789       C1172   1.236       .  S
C790        H829   1.081       .  S
C790        O803   1.235       .  S
C790        O827   1.269       .  A
Mg791       O835   2.315       .  S
O792       Mg817   2.132       .  S
O793        C824   1.270   1_545  A
O793       Mg817   2.302       .  S
C794        O796   1.273       .  A
C794        O808   1.276       .  A
C794        C929   1.494       .  S
O795        C823   1.270       .  A
O795      Mg1145   2.301       .  S
O796       Mg828   2.278       .  S
Mg797      O1137   2.163   1_546  S
Mg797       O803   2.137       .  S
Mg797      O1143   2.301   1_545  S
Mg797      O1159   2.249   1_545  S
Mg797       O799   2.326   1_556  S
C798        O836   1.273       .  A
C798        O804   1.272       .  A
C798        C996   1.481       .  S
O799        C806   1.277       .  A
C801       H1174   1.081       .  S
C801       O1163   1.235       .  S
C801        O816   1.269       .  A
O802        C825   1.270       .  A
O803       Mg817   2.149   1_556  S
O804       Mg834   2.286   1_554  S
C805        O818   1.271       .  A
C805        O810   1.275       .  A
C805        C916   1.489       .  S
C806        O833   1.269       .  A
C806       C1016   1.479       .  S
Mg807       O814   2.145       .  S
Mg807      O1163   2.160   1_554  S
Mg807       O808   2.310   1_554  S
Mg807      O1157   2.295       .  S
Mg807      O1184   2.261       .  S
O809        C813   1.269   1_655  A
O809      Mg1155   2.295   1_545  S
O810       Mg817   2.300   1_556  S
O811        C830   1.270       .  A
O811      Mg1145   2.249       .  S
O812        C832   1.276       .  A
O812       Mg828   2.304   1_554  S
O814       Mg828   2.153   1_554  S
O814        C825   1.236       .  S
O815      Mg1155   2.160   1_546  S
O815       Mg834   2.144       .  S
O815       C1149   1.235   1_545  S
O816       Mg828   2.295       .  S
Mg817       O833   2.243       .  S
H819       C1172   1.081       .  S
O820       Mg828   2.153       .  S
H822        C825   1.081       .  S
C824       H1167   1.081       .  S
C824       O1137   1.236       .  S
H826       C1149   1.081   1_545  S
C830        O835   1.277   1_556  A
C830        C939   1.479       .  S
O831        C832   1.274       .  A
C832       C1006   1.490       .  S
O836      Mg1155   2.261   1_545  S
O837       Mg839   2.138       .  S
C838        H877   1.081       .  S
C838        O851   1.235       .  S
C838        O875   1.268       .  A
Mg839      O1216   2.154   1_545  S
Mg839       O883   2.322       .  S
Mg839      O1227   2.244   1_545  S
Mg839      O1198   2.305   1_545  S
O840      Mg1230   2.164   1_545  S
O840       Mg865   2.148       .  S
O840       C1209   1.237       .  S
O841        C872   1.269       .  A
O841       Mg865   2.298       .  S
C842        O844   1.273       .  A
C842        O856   1.280       .  A
C842        C979   1.497       .  S
O843        C871   1.270   1_545  A
O844       Mg876   2.276       .  S
Mg845       O851   2.125       .  S
Mg845       O847   2.284       .  S
C846        O884   1.275       .  A
C846        O852   1.274       .  A
C846        C906   1.487       .  S
O847        C854   1.270       .  A
H848       C1209   1.081       .  S
C849        O864   1.269   1_455  A
O850        C873   1.271       .  A
O850      Mg1187   2.305       .  S
O851       Mg865   2.155       .  S
O852       Mg882   2.282       .  S
C853        O866   1.274       .  A
C853        O858   1.272       .  A
C853        C989   1.490       .  S
C854        O881   1.274       .  A
C854        C889   1.490       .  S
Mg855       O862   2.154       .  S
Mg855       O856   2.330       .  S
O857        C861   1.271       .  A
O858       Mg865   2.290       .  S
O859        C878   1.270       .  A
O860        C880   1.278       .  A
O860       Mg876   2.315       .  S
C861       H1196   1.081       .  S
C861       O1188   1.237       .  S
O862       Mg876   2.160       .  S
O862        C873   1.236       .  S
O863       Mg882   2.150       .  S
O864       Mg876   2.297       .  S
Mg865       O881   2.276       .  S
O866      Mg1230   2.275   1_545  S
O868      Mg1187   2.154       .  S
O868       Mg876   2.153       .  S
O868       C1219   1.236       .  S
H869       C1219   1.081       .  S
H870        C873   1.081       .  S
C871       H1217   1.081       .  S
C871       O1216   1.236       .  S
O875      Mg1230   2.287   1_545  S
C878        O883   1.276       .  A
C878        C969   1.481       .  S
O879        C880   1.268       .  A
O879      Mg1187   2.243       .  S
C880        C896   1.492       .  S
Mg882      O1188   2.164       .  S
Mg882      O1214   2.275       .  S
Mg882      O1223   2.287       .  S
C885        C886   1.393       .  A
C885        C890   1.395       .  A
C885        H892   1.084       .  S
C886        C887   1.403       .  A
C887        C888   1.399       .  A
C887       Br894   1.917       .  S
C888        C889   1.410       .  A
C888        H893   1.083       .  S
C889        C890   1.423       .  A
C890       Br891   1.922       .  S
C895        C896   1.410       .  A
C895        C900   1.397       .  A
C895        H902   1.083       .  S
C896        C897   1.424       .  A
C897        C898   1.400       .  A
C897       Br904   1.924       .  S
C898        C899   1.395       .  A
C898        H903   1.083       .  S
C899        C900   1.402       .  A
C900       Br901   1.916       .  S
C905        C906   1.409       .  A
C905        C910   1.397       .  A
C905        H912   1.083       .  S
C906        C907   1.412       .  A
C907        C908   1.402       .  A
C907       Br914   1.919       .  S
C908        C909   1.406       .  A
C908        H913   1.083       .  S
C909        C910   1.407       .  A
C910       Br911   1.919       .  S
C915        C916   1.407       .  A
C915        C920   1.396       .  A
C915        H922   1.083   1_556  S
C916        C917   1.416       .  A
C917        C918   1.404       .  A
C917       Br924   1.921       .  S
C918        C919   1.404       .  A
C918        H923   1.083       .  S
C919        C920   1.408       .  A
C920       Br921   1.919   1_556  S
C925        C926   1.401       .  A
C925        C930   1.401       .  A
C925        H932   1.083       .  S
C926        C927   1.404       .  A
C927        C928   1.401       .  A
C927       Br934   1.917   1_556  S
C928        C929   1.411       .  A
C928        H933   1.083   1_556  S
C929        C930   1.418       .  A
C930       Br931   1.922       .  S
C935        C936   1.406       .  A
C935        C940   1.400       .  A
C935        H942   1.082       .  S
C936        C937   1.420   1_556  A
C937        C938   1.398       .  A
C937       Br944   1.923       .  S
C938        C939   1.401   1_554  A
C938        H943   1.084       .  S
C939        C940   1.411       .  A
C940       Br941   1.920       .  S
C945        C946   1.411       .  A
C945        C950   1.401       .  A
C945        H952   1.081       .  S
C946        C947   1.418       .  A
C947        C948   1.399       .  A
C947       Br954   1.922       .  S
C948        C949   1.407       .  A
C948        H953   1.082       .  S
C949        C950   1.415       .  A
C950       Br951   1.923       .  S
C955        C956   1.406       .  A
C955        C960   1.395       .  A
C955        H962   1.081       .  S
C956        C957   1.414       .  A
C957        C958   1.398       .  A
C957       Br964   1.923       .  S
C958        C959   1.408       .  A
C958        H963   1.081       .  S
C959        C960   1.417       .  A
C960       Br961   1.925       .  S
C965        C966   1.403       .  A
C965        C970   1.403       .  A
C965        H972   1.083       .  S
C966        C967   1.405       .  A
C967        C968   1.397       .  A
C967       Br974   1.918       .  S
C968        C969   1.406       .  A
C968        H973   1.082       .  S
C969        C970   1.412       .  A
C970       Br971   1.919       .  S
C975        C976   1.402       .  A
C975        C980   1.404       .  A
C975        H982   1.083       .  S
C976        C977   1.409       .  A
C977        C978   1.400       .  A
C977       Br984   1.919       .  S
C978        C979   1.409       .  A
C978        H983   1.083       .  S
C979        C980   1.420       .  A
C980       Br981   1.922       .  S
C985        C986   1.397       .  A
C985        C990   1.401       .  A
C985        H992   1.083       .  S
C986        C987   1.402       .  A
C987        C988   1.398       .  A
C987       Br994   1.916       .  S
C988        C989   1.410       .  A
C988        H993   1.083       .  S
C989        C990   1.421       .  A
C990       Br991   1.923       .  S
C995        C996   1.406       .  A
C995       C1000   1.394       .  A
C995       H1002   1.083       .  S
C996        C997   1.418       .  A
C997        C998   1.401       .  A
C997      Br1004   1.922       .  S
C998        C999   1.398       .  A
C998       H1003   1.083       .  S
C999       C1000   1.403       .  A
C1000     Br1001   1.917       .  S
C1005      C1006   1.409       .  A
C1005      C1010   1.399       .  A
C1005      H1012   1.083   1_554  S
C1006      C1007   1.415       .  A
C1007      C1008   1.403       .  A
C1007     Br1014   1.920       .  S
C1008      C1009   1.405       .  A
C1008      H1013   1.083       .  S
C1009      C1010   1.408       .  A
C1010     Br1011   1.919   1_554  S
C1015      C1016   1.404       .  A
C1015      C1020   1.402       .  A
C1015      H1022   1.083       .  S
C1016      C1017   1.414       .  A
C1017      C1018   1.397       .  A
C1017     Br1024   1.923   1_554  S
C1018      C1019   1.399       .  A
C1018      H1023   1.083   1_554  S
C1019      C1020   1.411       .  A
C1020     Br1021   1.918       .  S
C1025      C1026   1.409       .  A
C1025      C1030   1.401       .  A
C1025      H1032   1.081       .  S
C1026      C1027   1.418       .  A
C1027      C1028   1.397       .  A
C1027     Br1034   1.925       .  S
C1028      C1029   1.407       .  A
C1028      H1033   1.082       .  S
C1029      C1030   1.414       .  A
C1030     Br1031   1.923       .  S
C1035      C1036   1.405       .  A
C1035      C1040   1.395       .  A
C1035      H1042   1.081       .  S
C1036      C1037   1.416       .  A
C1037      C1038   1.399       .  A
C1037     Br1044   1.924       .  S
C1038      C1039   1.407       .  A
C1038      H1043   1.080       .  S
C1039      C1040   1.417       .  A
C1040     Br1041   1.925       .  S
C1045      C1047   1.538       .  S
C1045      C1049   1.546       .  S
C1045      C1048   1.530       .  S
C1045      C1384   1.526       .  S
C1046      C1050   1.531   1_556  S
C1046      C1052   1.550   1_556  S
C1046      C1051   1.542   1_556  S
C1046      C1374   1.531       .  S
C1047      C1055   1.379       .  A
C1047      C1050   1.391       .  A
C1048      C1059   1.376       .  A
C1048      C1051   1.391       .  A
C1049      C1063   1.380       .  A
C1049      C1052   1.398       .  A
C1050      C1053   1.375   1_554  A
C1051      C1057   1.380   1_554  A
C1052      C1060   1.383   1_554  A
C1053      N1054   1.354   1_556  A
C1053      H1066   1.083       .  S
N1054      C1055   1.355       .  A
N1054      C1347   1.428       .  S
C1055      H1056   1.082       .  S
C1057      N1058   1.359   1_556  A
C1057      H1067   1.082       .  S
N1058      C1059   1.356       .  A
N1058      C1367   1.437       .  S
C1059      H1065   1.082       .  S
C1060      N1061   1.360   1_556  A
C1060      H1062   1.081       .  S
N1061      C1063   1.356       .  A
N1061      C1357   1.441       .  S
C1063      H1064   1.082       .  S
C1068      C1070   1.542       .  S
C1068      C1072   1.529       .  S
C1068      C1071   1.540       .  S
C1068      C1387   1.527       .  S
C1069      C1073   1.538       .  S
C1069      C1075   1.545       .  S
C1069      C1074   1.552       .  S
C1069      C1377   1.531       .  S
C1070      C1078   1.380       .  A
C1070      C1073   1.395       .  A
C1071      C1082   1.377       .  A
C1071      C1074   1.395       .  A
C1072      C1086   1.376       .  A
C1072      C1075   1.391       .  A
C1073      C1076   1.380       .  A
C1074      C1080   1.387       .  A
C1075      C1083   1.384       .  A
C1076      N1077   1.357       .  A
C1076      H1089   1.082       .  S
N1077      C1078   1.357       .  A
N1077      C1314   1.435       .  S
C1078      H1079   1.082       .  S
C1080      N1081   1.360       .  A
C1080      H1090   1.082       .  S
N1081      C1082   1.355       .  A
N1081      C1324   1.442       .  S
C1082      H1088   1.082       .  S
C1083      N1084   1.356       .  A
C1083      H1085   1.082       .  S
N1084      C1086   1.354       .  A
N1084      C1334   1.431       .  S
C1086      H1087   1.083       .  S
C1091      C1093   1.540   1_554  S
C1091      C1095   1.529   1_554  S
C1091      C1094   1.537   1_554  S
C1091      C1304   1.527       .  S
C1092      C1096   1.551       .  S
C1092      C1098   1.535       .  S
C1092      C1097   1.552       .  S
C1092      C1297   1.533       .  S
C1093      C1101   1.375   1_556  A
C1093      C1096   1.396       .  A
C1094      C1105   1.379   1_556  A
C1094      C1097   1.395       .  A
C1095      C1109   1.374   1_556  A
C1095      C1098   1.387       .  A
C1096      C1099   1.384       .  A
C1097      C1103   1.384       .  A
C1098      C1106   1.380       .  A
C1099      N1100   1.362       .  A
C1099      H1112   1.081       .  S
N1100      C1101   1.354   1_556  A
N1100      C1284   1.446       .  S
C1101      H1102   1.080       .  S
C1103      N1104   1.357       .  A
C1103      H1113   1.082       .  S
N1104      C1105   1.355   1_556  A
N1104      C1274   1.437       .  S
C1105      H1111   1.082       .  S
C1106      N1107   1.360       .  A
C1106      H1108   1.082       .  S
N1107      C1109   1.359   1_556  A
N1107      C1267   1.440       .  S
C1109      H1110   1.082       .  S
C1114      C1116   1.539       .  S
C1114      C1118   1.541       .  S
C1114      C1117   1.521       .  S
C1114      C1307   1.525       .  S
C1115      C1119   1.550       .  S
C1115      C1121   1.550       .  S
C1115      C1120   1.531       .  S
C1115      C1294   1.534       .  S
C1116      C1124   1.378       .  A
C1116      C1119   1.396       .  A
C1117      C1128   1.372       .  A
C1117      C1120   1.385       .  A
C1118      C1132   1.378       .  A
C1118      C1121   1.402       .  A
C1119      C1122   1.383       .  A
C1120      C1126   1.377       .  A
C1121      C1129   1.382       .  A
C1122      N1123   1.360       .  A
C1122      H1135   1.081       .  S
N1123      C1124   1.356       .  A
N1123      C1257   1.441       .  S
C1124      H1125   1.082       .  S
C1126      N1127   1.357       .  A
C1126      H1136   1.082       .  S
N1127      C1128   1.353       .  A
N1127      C1234   1.429       .  S
C1128      H1134   1.083       .  S
C1129      N1130   1.357       .  A
C1129      H1131   1.082       .  S
N1130      C1132   1.351       .  A
N1130      C1247   1.430       .  S
C1132      H1133   1.082       .  S
O1137     Mg1139   2.156       .  S
C1138      H1177   1.081       .  S
C1138      O1151   1.235       .  S
C1138      O1175   1.269       .  A
Mg1139     O1183   2.315       .  S
O1140     Mg1165   2.132       .  S
O1141      C1172   1.270       .  A
O1141     Mg1165   2.302       .  S
C1142      O1144   1.273       .  A
C1142      O1156   1.276       .  A
C1142      C1277   1.494       .  S
O1143      C1171   1.270       .  A
O1144     Mg1176   2.278       .  S
Mg1145     O1151   2.137       .  S
Mg1145     O1147   2.326   1_556  S
C1146      O1184   1.273       .  A
C1146      O1152   1.272       .  A
C1146      C1344   1.481       .  S
O1147      C1154   1.277       .  A
C1149      O1164   1.269       .  A
O1150      C1173   1.270       .  A
O1151     Mg1165   2.149   1_556  S
O1152     Mg1182   2.286   1_554  S
C1153      O1166   1.271       .  A
C1153      O1158   1.275       .  A
C1153      C1264   1.489       .  S
C1154      O1181   1.269       .  A
C1154      C1364   1.479       .  S
Mg1155     O1162   2.145       .  S
Mg1155     O1156   2.310   1_554  S
O1157      C1161   1.269   1_655  A
O1158     Mg1165   2.300   1_556  S
O1159      C1178   1.270       .  A
O1160      C1180   1.276       .  A
O1160     Mg1176   2.304   1_554  S
O1162     Mg1176   2.153   1_554  S
O1162      C1173   1.236       .  S
O1163     Mg1182   2.144       .  S
O1164     Mg1176   2.295       .  S
Mg1165     O1181   2.243       .  S
O1168     Mg1176   2.153       .  S
H1170      C1173   1.081       .  S
C1178      O1183   1.277   1_556  A
C1178      C1287   1.479       .  S
O1179      C1180   1.274       .  A
C1180      C1354   1.490       .  S
O1185     Mg1187   2.138       .  S
C1186      H1225   1.081       .  S
C1186      O1199   1.235       .  S
C1186      O1223   1.268       .  A
Mg1187     O1231   2.322       .  S
O1188     Mg1213   2.148       .  S
O1189      C1220   1.269       .  A
O1189     Mg1213   2.298       .  S
C1190      O1192   1.273       .  A
C1190      O1204   1.280       .  A
C1190      C1327   1.497       .  S
O1191      C1219   1.270       .  A
O1192     Mg1224   2.276       .  S
Mg1193     O1199   2.125       .  S
Mg1193     O1195   2.284       .  S
C1194      O1232   1.275       .  A
C1194      O1200   1.274       .  A
C1194      C1254   1.487       .  S
O1195      C1202   1.270       .  A
C1197      O1212   1.269   1_455  A
O1198      C1221   1.271       .  A
O1199     Mg1213   2.155       .  S
O1200     Mg1230   2.282       .  S
C1201      O1214   1.274       .  A
C1201      O1206   1.272       .  A
C1201      C1337   1.490       .  S
C1202      O1229   1.274       .  A
C1202      C1237   1.490       .  S
Mg1203     O1210   2.154       .  S
Mg1203     O1204   2.330       .  S
O1205      C1209   1.271   1_565  A
O1206     Mg1213   2.290       .  S
O1207      C1226   1.270       .  A
O1208      C1228   1.278       .  A
O1208     Mg1224   2.315       .  S
O1210     Mg1224   2.160       .  S
O1210      C1221   1.236       .  S
O1211     Mg1230   2.150       .  S
O1212     Mg1224   2.297       .  S
Mg1213     O1229   2.276       .  S
O1216     Mg1224   2.153       .  S
H1218      C1221   1.081       .  S
C1226      O1231   1.276       .  A
C1226      C1317   1.481       .  S
O1227      C1228   1.268       .  A
C1228      C1244   1.492       .  S
C1233      C1234   1.393       .  A
C1233      C1238   1.395       .  A
C1233      H1240   1.084       .  S
C1234      C1235   1.403       .  A
C1235      C1236   1.399       .  A
C1235     Br1242   1.917       .  S
C1236      C1237   1.410       .  A
C1236      H1241   1.083       .  S
C1237      C1238   1.423       .  A
C1238     Br1239   1.922       .  S
C1243      C1244   1.410       .  A
C1243      C1248   1.397       .  A
C1243      H1250   1.083       .  S
C1244      C1245   1.424       .  A
C1245      C1246   1.400       .  A
C1245     Br1252   1.924       .  S
C1246      C1247   1.395       .  A
C1246      H1251   1.083       .  S
C1247      C1248   1.402       .  A
C1248     Br1249   1.916       .  S
C1253      C1254   1.409       .  A
C1253      C1258   1.397       .  A
C1253      H1260   1.083       .  S
C1254      C1255   1.412       .  A
C1255      C1256   1.402       .  A
C1255     Br1262   1.919       .  S
C1256      C1257   1.406       .  A
C1256      H1261   1.083       .  S
C1257      C1258   1.407       .  A
C1258     Br1259   1.919       .  S
C1263      C1264   1.407       .  A
C1263      C1268   1.396       .  A
C1263      H1270   1.083   1_556  S
C1264      C1265   1.416       .  A
C1265      C1266   1.404       .  A
C1265     Br1272   1.921       .  S
C1266      C1267   1.404       .  A
C1266      H1271   1.083       .  S
C1267      C1268   1.408       .  A
C1268     Br1269   1.919   1_556  S
C1273      C1274   1.401       .  A
C1273      C1278   1.401       .  A
C1273      H1280   1.083       .  S
C1274      C1275   1.404       .  A
C1275      C1276   1.401       .  A
C1275     Br1282   1.917   1_556  S
C1276      C1277   1.411       .  A
C1276      H1281   1.083   1_556  S
C1277      C1278   1.418       .  A
C1278     Br1279   1.922       .  S
C1283      C1284   1.406       .  A
C1283      C1288   1.400       .  A
C1283      H1290   1.082       .  S
C1284      C1285   1.420   1_556  A
C1285      C1286   1.398       .  A
C1285     Br1292   1.923       .  S
C1286      C1287   1.401   1_554  A
C1286      H1291   1.084       .  S
C1287      C1288   1.411       .  A
C1288     Br1289   1.920       .  S
C1293      C1294   1.411       .  A
C1293      C1298   1.402       .  A
C1293      H1300   1.081       .  S
C1294      C1295   1.418       .  A
C1295      C1296   1.399       .  A
C1295     Br1302   1.922       .  S
C1296      C1297   1.407       .  A
C1296      H1301   1.082       .  S
C1297      C1298   1.415       .  A
C1298     Br1299   1.923       .  S
C1303      C1304   1.406       .  A
C1303      C1308   1.395       .  A
C1303      H1310   1.081       .  S
C1304      C1305   1.414       .  A
C1305      C1306   1.398       .  A
C1305     Br1312   1.923       .  S
C1306      C1307   1.408       .  A
C1306      H1311   1.081       .  S
C1307      C1308   1.417       .  A
C1308     Br1309   1.925       .  S
C1313      C1314   1.403       .  A
C1313      C1318   1.403       .  A
C1313      H1320   1.083       .  S
C1314      C1315   1.405       .  A
C1315      C1316   1.397       .  A
C1315     Br1322   1.918       .  S
C1316      C1317   1.406       .  A
C1316      H1321   1.082       .  S
C1317      C1318   1.412       .  A
C1318     Br1319   1.919       .  S
C1323      C1324   1.402       .  A
C1323      C1328   1.404       .  A
C1323      H1330   1.083       .  S
C1324      C1325   1.409       .  A
C1325      C1326   1.400       .  A
C1325     Br1332   1.919       .  S
C1326      C1327   1.409       .  A
C1326      H1331   1.083       .  S
C1327      C1328   1.420       .  A
C1328     Br1329   1.922       .  S
C1333      C1334   1.397       .  A
C1333      C1338   1.401       .  A
C1333      H1340   1.083       .  S
C1334      C1335   1.402       .  A
C1335      C1336   1.398       .  A
C1335     Br1342   1.916       .  S
C1336      C1337   1.410       .  A
C1336      H1341   1.083       .  S
C1337      C1338   1.421       .  A
C1338     Br1339   1.923       .  S
C1343      C1344   1.406       .  A
C1343      C1348   1.394       .  A
C1343      H1350   1.083       .  S
C1344      C1345   1.418       .  A
C1345      C1346   1.401       .  A
C1345     Br1352   1.922       .  S
C1346      C1347   1.398       .  A
C1346      H1351   1.083       .  S
C1347      C1348   1.403       .  A
C1348     Br1349   1.917       .  S
C1353      C1354   1.409       .  A
C1353      C1358   1.399       .  A
C1353      H1360   1.083   1_554  S
C1354      C1355   1.415       .  A
C1355      C1356   1.403       .  A
C1355     Br1362   1.920       .  S
C1356      C1357   1.405       .  A
C1356      H1361   1.083       .  S
C1357      C1358   1.408       .  A
C1358     Br1359   1.919   1_554  S
C1363      C1364   1.404       .  A
C1363      C1368   1.402       .  A
C1363      H1370   1.083       .  S
C1364      C1365   1.414       .  A
C1365      C1366   1.397       .  A
C1365     Br1372   1.923   1_554  S
C1366      C1367   1.399       .  A
C1366      H1371   1.083   1_554  S
C1367      C1368   1.411       .  A
C1368     Br1369   1.918       .  S
C1373      C1374   1.409       .  A
C1373      C1378   1.401       .  A
C1373      H1380   1.081       .  S
C1374      C1375   1.418       .  A
C1375      C1376   1.397       .  A
C1375     Br1382   1.925       .  S
C1376      C1377   1.407       .  A
C1376      H1381   1.082       .  S
C1377      C1378   1.414       .  A
C1378     Br1379   1.923       .  S
C1383      C1384   1.405       .  A
C1383      C1388   1.395       .  A
C1383      H1390   1.081       .  S
C1384      C1385   1.416       .  A
C1385      C1386   1.399       .  A
C1385     Br1392   1.924       .  S
C1386      C1387   1.407       .  A
C1386      H1391   1.080       .  S
C1387      C1388   1.417       .  A
C1388     Br1389   1.925       .  S
