geometry optimzed in LAMMPS
_audit_creation_date              2020-12-01 
_audit_creation_method            'lammps2cif' 
_symmetry_space_group_name_H-M    'P1' 
_symmetry_Int_Tables_number       1 
_symmetry_cell_setting            triclinic 
loop_ 
_symmetry_equiv_pos_as_xyz 
  x,y,z 
_cell_length_a                    36.07481083 
_cell_length_b                    36.0636004269749 
_cell_length_c                    30.535841597531853 
_cell_angle_alpha                 89.81012006004703 
_cell_angle_beta                  89.73875322726393 
_cell_angle_gamma                 120.28453150937375 
loop_ 
_atom_site_label 
_atom_site_type_symbol 
_atom_site_fract_x 
_atom_site_fract_y 
_atom_site_fract_z 
_atom_site_charge 
C1          C  0.32992826  0.17229337  0.04064500     0.30300
C2          C  0.33180048  0.17537958  0.95036048     0.30300
C3          C  0.35351173  0.15155104  0.01708572    -0.05900
C4          C  0.28575279  0.15017277  0.01705212    -0.06700
C5          C  0.35251195  0.21790240  0.01897992    -0.06600
C6          C  0.35325721  0.15300623  0.97141040    -0.05900
C7          C  0.28718460  0.15271662  0.97122493    -0.06700
C8          C  0.35250445  0.21866182  0.97322748    -0.06600
C9          C  0.37370844  0.13271501  0.95483979    -0.32000
N10         N  0.38785666  0.11970252  0.98888297     0.14500
C11         C  0.37666013  0.13135585  0.02690771    -0.32000
H12         H  0.38517299  0.12546564  0.05900895     0.16500
C13         C  0.24588857  0.13532284  0.95624227    -0.30900
N14         N  0.21911207  0.11966442  0.99093778     0.13300
C15         C  0.24263786  0.12854428  0.02830420    -0.30900
C16         C  0.37124192  0.26053424  0.95927360    -0.31200
N17         N  0.38428176  0.28579383  0.99472899     0.13800
H18         H  0.37504490  0.27219310  0.92592406     0.16400
C19         C  0.37336180  0.26072576  0.03143168    -0.31200
H20         H  0.38072170  0.27296619  0.06445738     0.16400
H21         H  0.22936105  0.12063229  0.06112054     0.16400
H22         H  0.37813021  0.12785685  0.92068589     0.16500
H23         H  0.23558511  0.13439358  0.92286485     0.16400
C24         C  0.34010503  0.16134906  0.46031562     0.30300
C25         C  0.33827406  0.15962928  0.55055106     0.30300
C26         C  0.36209578  0.13886112  0.48330946    -0.05900
C27         C  0.36258223  0.20594612  0.48370433    -0.06700
C28         C  0.29524214  0.13903436  0.48253781    -0.06600
C29         C  0.36068426  0.13850123  0.52890557    -0.05900
C30         C  0.36031858  0.20436151  0.52962590    -0.06700
C31         C  0.29466728  0.13846370  0.52826570    -0.06600
C32         C  0.38188863  0.11872211  0.54471328    -0.32000
N33         N  0.39627507  0.10649517  0.51017014     0.14500
C34         C  0.38496648  0.11864165  0.47253558    -0.32000
H35         H  0.39358859  0.11374468  0.43997585     0.16500
C36         C  0.37822688  0.24562138  0.54505734    -0.30900
N37         N  0.39404423  0.27266871  0.51058343     0.13300
C38         C  0.38518981  0.24934018  0.47306992    -0.30900
C39         C  0.25270798  0.11976738  0.54205813    -0.31200
N40         N  0.22767836  0.10805173  0.50631461     0.13800
H41         H  0.24085442  0.11544070  0.57537043     0.16400
C42         C  0.25287810  0.11970629  0.46972399    -0.31200
H43         H  0.24118862  0.11421113  0.43642233     0.16400
H44         H  0.39447267  0.26324994  0.44063770     0.16400
H45         H  0.38657359  0.11357385  0.57870074     0.16500
H46         H  0.37981866  0.25559820  0.57869843     0.16400
C47         C  0.16022164  0.34080690  0.05045628     0.30300
C48         C  0.16256450  0.34118644  0.96017688     0.30300
C49         C  0.13774632  0.36131438  0.02783942    -0.05900
C50         C  0.20501579  0.36393222  0.02980572    -0.06700
C51         C  0.14054271  0.29692297  0.02907546    -0.06600
C52         C  0.13835996  0.36226717  0.98206162    -0.05900
C53         C  0.20674443  0.36534421  0.98398484    -0.06700
C54         C  0.14134968  0.29663294  0.98335605    -0.06600
C55         C  0.11856526  0.38569180  0.97118345    -0.32000
N56         N  0.10612446  0.39700751  0.00869639     0.14500
C57         C  0.11795164  0.38255387  0.04333499    -0.32000
H58         H  0.11306914  0.38777100  0.07725369     0.16500
C59         C  0.25004757  0.38713486  0.97319704    -0.30900
N60         N  0.27335758  0.39688352  0.01077877     0.13300
C61         C  0.24626834  0.38194982  0.04529535    -0.30900
C62         C  0.12172114  0.25388627  0.97160704    -0.31200
N63         N  0.10973917  0.22945736  0.00878755     0.13800
H64         H  0.11578329  0.24139475  0.93860005     0.16400
C65         C  0.12161518  0.25528301  0.04390081    -0.31200
H66         H  0.11674467  0.24413697  0.07749871     0.16400
H67         H  0.25621163  0.38371767  0.07896126     0.16400
H68         H  0.11486432  0.39565042  0.93891101     0.16500
H69         H  0.26369475  0.39438982  0.94051334     0.16400
C70         C  0.17415717  0.33234348  0.44956067     0.30300
C71         C  0.16955569  0.32946295  0.53978531     0.30300
C72         C  0.15312820  0.35517999  0.47053598    -0.05900
C73         C  0.14976896  0.28745196  0.46978177    -0.06700
C74         C  0.21692451  0.35120155  0.47300163    -0.06600
C75         C  0.15083215  0.35467856  0.51604297    -0.05900
C76         C  0.14635107  0.28557788  0.51556175    -0.06700
C77         C  0.21571271  0.35084927  0.51889349    -0.06600
C78         C  0.12947604  0.37660390  0.52616699    -0.32000
N79         N  0.11858700  0.38862976  0.48818784     0.14500
C80         C  0.13289225  0.37573844  0.45409077    -0.32000
H81         H  0.12815087  0.38029201  0.41994522     0.16500
C82         C  0.12502201  0.24236453  0.52639558    -0.30900
N83         N  0.11732349  0.21915274  0.48892718     0.13300
C84         C  0.13345469  0.24627754  0.45453821    -0.30900
C85         C  0.25868440  0.37257403  0.53122580    -0.31200
N86         N  0.28386556  0.38378403  0.49453185     0.13800
H87         H  0.27122423  0.38137713  0.56396209     0.16400
C88         C  0.25876055  0.37048482  0.45907482    -0.31200
H89         H  0.27049621  0.37506748  0.42566247     0.16400
H90         H  0.13403003  0.23632312  0.42131633     0.16400
H91         H  0.12144855  0.38260528  0.55854770     0.16500
H92         H  0.11707838  0.22882961  0.55911185     0.16400
O93         O  0.44354641  0.02929919  0.03016659    -0.88100
C94         C  0.42599860  0.44183235  0.93476270     0.88000
Mg95       Mg  0.49376842  0.09565666  0.02697066     1.58100
O96         O  0.47474107  0.43502058  0.03270496    -0.87800
O97         O  0.41948678  0.47448070  0.07437583    -0.75100
C98         C  0.17339800  0.09762853  0.98823210     0.93000
O99         O  0.46238983  0.04846767  0.92648288    -0.74900
O100        O  0.15508697  0.11844972  0.97728339    -0.82400
Mg101      Mg  0.40553399  0.50428918  0.97115682     1.58000
C102        C  0.08474098  0.42108220  0.01170944     0.92900
O103        O  0.34021237  0.45790772  0.00133796    -0.80700
H104        H  0.47243045  0.42144831  0.09651155    -0.06100
C105        C  0.06078333  0.00319136  0.93318946     0.87900
O106        O  0.03731615  0.08380380  0.07237366    -0.75200
O107        O  0.42160975  0.45435885  0.97082432    -0.88000
O108        O  0.04474283  0.40212470  0.00396295    -0.80800
C109        C  0.40806373  0.33154117  0.99289806     0.93100
C110        C  0.31913325  0.41881689  0.01351134     0.92900
Mg111      Mg  0.08731548  0.01129589  0.02863902     1.58000
O112        O  0.15238331  0.05797970  0.99822639    -0.80700
O113        O  0.03131009  0.46631420  0.07388085    -0.75000
O114        O  0.38934634  0.35206763  0.00359671    -0.80800
O115        O  0.38747776  0.05589326  0.97667839    -0.82500
O116        O  0.10383038  0.16281667  0.00151484    -0.80800
C117        C  0.99174746  0.43971706  0.06871321     0.87300
O118        O  0.07040587  0.06059708  0.03071638    -0.88000
O119        O  0.04852107  0.48694474  0.96977120    -0.88100
O120        O  0.07383330  0.04258014  0.92656258    -0.75100
Mg121      Mg  0.40789136  0.41756404  0.03165590     1.58000
O122        O  0.44734994  0.35026506  0.98140970    -0.82500
H123        H  0.43296358  0.03375079  0.09370266    -0.06200
O124        O  0.01837955  0.08106248  0.96841468    -0.87800
H125        H  0.02145212  0.09320028  0.90419124    -0.06100
H126        H  0.08206592  0.07024759  0.09482226    -0.06200
C127        C  0.50179857  0.07546453  0.93203823     0.87300
C128        C  0.43171581  0.51355305  0.06698869     0.87900
C129        C  0.06450419  0.07177837  0.06694479     0.88000
H130        H  0.05953451  0.48332266  0.90614795    -0.06200
O131        O  0.45334080  0.43015994  0.92873991    -0.75200
Mg132      Mg  0.08501560  0.09862916  0.97075383     1.58000
H133        H  0.40707664  0.44202446  0.90749690    -0.06200
C134        C  0.40928604  0.09569046  0.98551221     0.92900
O135        O  0.04558392  0.16554613  0.02031758    -0.82500
C136        C  0.08531589  0.18378301  0.01085911     0.93000
O137        O  0.33740032  0.39824719  0.02590745    -0.82500
Mg138      Mg  0.99855362  0.42021677  0.97335341     1.58200
O139        O  0.44916898  0.11450652  0.99383256    -0.80800
O140        O  0.10633716  0.46070029  0.02113607    -0.82500
O141        O  0.48500983  0.04850324  0.46922146    -0.88100
C142        C  0.07133654  0.06512953  0.56470246     0.88000
Mg143      Mg  0.41840972  0.99849463  0.47308289     1.58100
O144        O  0.07830701  0.01781116  0.46590967    -0.87800
O145        O  0.03968548  0.07398254  0.42478165    -0.75100
C146        C  0.41623717  0.31847720  0.51325152     0.93000
O147        O  0.46578468  0.03090875  0.57332966    -0.74900
O148        O  0.39572315  0.33695930  0.52512863    -0.82400
Mg149      Mg  0.01024142  0.08710030  0.52808843     1.58000
C150        C  0.09373717  0.40918189  0.48460134     0.92900
O151        O  0.05661250  0.15211492  0.49782544    -0.80700
H152        H  0.08997204  0.01977941  0.40163968    -0.06100
C153        C  0.51160369  0.43122919  0.56543271     0.87900
O154        O  0.42862085  0.45355270  0.42808395    -0.75200
O155        O  0.05978409  0.07069026  0.52857023    -0.88000
O156        O  0.11232605  0.44950566  0.49026162    -0.80800
C157        C  0.18198101  0.08426349  0.50735114     0.93100
C158        C  0.09575985  0.17341003  0.48603242     0.92900
Mg159      Mg  0.50190237  0.40440120  0.47041443     1.58000
O160        O  0.45548041  0.33937334  0.50151701    -0.80700
O161        O  0.04595715  0.46089113  0.42505045    -0.75000
O162        O  0.16164247  0.10277100  0.49544463    -0.80800
O163        O  0.45955472  0.10601052  0.52232577    -0.82500
O164        O  0.35022090  0.38932952  0.50354729    -0.80800
C165        C  0.07255866  0.50056910  0.42983785     0.87300
O166        O  0.45194286  0.42057515  0.46959094    -0.88000
O167        O  0.02695488  0.44335911  0.52852920    -0.88100
O168        O  0.47254321  0.41866455  0.57325345    -0.75100
Mg169      Mg  0.09646585  0.08477959  0.46743564     1.58000
O170        O  0.16313757  0.04493618  0.51852061    -0.82500
H171        H  0.48015047  0.06018784  0.40610257    -0.06200
O172        O  0.43353942  0.47447331  0.53199374    -0.87800
H173        H  0.42082057  0.47210913  0.59602684    -0.06100
H174        H  0.44045494  0.40751286  0.40589938    -0.06200
C175        C  0.43882153  0.99143923  0.56812267     0.87300
C176        C  0.00051601  0.06109278  0.43244288     0.87900
C177        C  0.44000509  0.42589989  0.43358103     0.88000
H178        H  0.03206413  0.43234995  0.59178113    -0.06200
O179        O  0.08244289  0.03729700  0.57036633    -0.75200
Mg180      Mg  0.41564084  0.40751317  0.53085096     1.58000
H181        H  0.07056529  0.08333796  0.59239910    -0.06200
C182        C  0.41990851  0.08467426  0.51306298     0.92900
O183        O  0.34824549  0.44712383  0.48103998    -0.82500
C184        C  0.32960595  0.40786733  0.49271546     0.93000
O185        O  0.11652607  0.15536361  0.47361810    -0.82500
Mg186      Mg  0.09335598  0.49347086  0.52464276     1.58200
O187        O  0.40074383  0.04478356  0.50454061    -0.80800
O188        O  0.05368965  0.38650938  0.47732611    -0.82500
C189        C  0.16436732  0.32637182  0.59071002    -0.02900
C190        C  0.12597971  0.31950113  0.61058158    -0.05500
C191        C  0.12156538  0.31992319  0.65647791    -0.20600
C192        C  0.15452683  0.32524045  0.68496209     0.25100
C193        C  0.19169918  0.32863411  0.66539795    -0.18200
C194        C  0.19621447  0.32866809  0.61928179    -0.08100
C195        C  0.14836038  0.32742505  0.73413259    -0.18400
C196        C  0.17456225  0.32735343  0.76618330    -0.23200
C197        C  0.16892561  0.33017651  0.81533663     0.27200
C198        C  0.19540087  0.32343791  0.84417850    -0.20000
C199        C  0.19279456  0.32677551  0.88995517    -0.09600
C200        C  0.16443379  0.33826912  0.90929195    -0.10200
C201        C  0.13651233  0.34315021  0.88050809    -0.03100
C202        C  0.13898909  0.33970015  0.83448990    -0.18200
H203        H  0.09913815  0.31424758  0.59053826     0.10900
H204        H  0.09192034  0.31602063  0.66981035     0.10900
H205        H  0.21772741  0.33159896  0.68530535     0.10600
H206        H  0.22443437  0.32945701  0.60642141     0.11700
H207        H  0.12015066  0.32871545  0.74403425     0.11800
H208        H  0.20188073  0.32445567  0.75634998     0.13700
H209        H  0.21838004  0.31529779  0.83122202     0.10200
H210        H  0.21332455  0.32031811  0.91043943     0.12300
H211        H  0.11150104  0.34813125  0.89309076     0.08900
H212        H  0.11724364  0.34452597  0.81429864     0.11700
C213        C  0.15650850  0.34211625  0.09969680    -0.02900
C214        C  0.11852215  0.31177427  0.12123559    -0.05500
C215        C  0.11399631  0.31372545  0.16624129    -0.20600
C216        C  0.14638364  0.34724682  0.19017753     0.25100
C217        C  0.18152793  0.38081433  0.16806746    -0.18200
C218        C  0.18605142  0.37857690  0.12313420    -0.08100
C219        C  0.14314471  0.34547734  0.23810130    -0.18400
C220        C  0.17816581  0.36235332  0.26326124    -0.23200
C221        C  0.17574764  0.35415946  0.31045884     0.27200
C222        C  0.20676247  0.38555921  0.33732411    -0.20000
C223        C  0.20620112  0.37803867  0.38198903    -0.09600
C224        C  0.17628379  0.33789832  0.40034194    -0.10200
C225        C  0.14361125  0.30763253  0.37344355    -0.03100
C226        C  0.14396941  0.31514015  0.32876618    -0.18200
H227        H  0.09186377  0.28682692  0.10338824     0.10900
H228        H  0.08547280  0.28868361  0.18244857     0.10900
H229        H  0.20525746  0.40903551  0.18517727     0.10600
H230        H  0.21204444  0.40608767  0.10683301     0.11700
H231        H  0.11145551  0.32640894  0.25274204     0.11800
H232        H  0.20998673  0.38151735  0.24899977     0.13700
H233        H  0.23081366  0.41630810  0.32387047     0.10200
H234        H  0.22861466  0.40422866  0.40230529     0.12300
H235        H  0.11652808  0.27899536  0.38667852     0.08900
H236        H  0.11937190  0.29026314  0.30877019     0.11700
C237        C  0.33634215  0.17661816  0.90100674    -0.02900
C238        C  0.37559478  0.20701528  0.88144634    -0.05500
C239        C  0.38182231  0.20731402  0.83656497    -0.20600
C240        C  0.35030231  0.17531457  0.81063989     0.25100
C241        C  0.31250419  0.14265782  0.83014958    -0.18200
C242        C  0.30614177  0.14277473  0.87509549    -0.08100
C243        C  0.35736102  0.17759587  0.76323239    -0.18400
C244        C  0.34189277  0.14248613  0.73831338    -0.23200
C245        C  0.34378881  0.14575077  0.69038456     0.27200
C246        C  0.31031961  0.11348347  0.66634114    -0.20000
C247        C  0.30846223  0.11818617  0.62135392    -0.09600
C248        C  0.33895888  0.15615651  0.59987520    -0.10200
C249        C  0.37532224  0.18566808  0.62346921    -0.03100
C250        C  0.37741923  0.18098427  0.66841792    -0.18200
H251        H  0.40218515  0.23010104  0.90087035     0.10900
H252        H  0.41179272  0.23192447  0.82218610     0.10900
H253        H  0.28772826  0.11714512  0.81087463     0.10600
H254        H  0.27836577  0.11543456  0.88936134     0.11700
H255        H  0.37505564  0.20941481  0.74858799     0.11800
H256        H  0.32404523  0.11072619  0.75308696     0.13700
H257        H  0.28523230  0.08493451  0.68246519     0.10200
H258        H  0.28355362  0.09153140  0.60346494     0.12300
H259        H  0.40281079  0.21178459  0.60723947     0.08900
H260        H  0.40550143  0.20468995  0.68573938     0.11700
C261        C  0.33805002  0.15960516  0.40938846    -0.02900
C262        C  0.33210085  0.12289466  0.38686580    -0.05500
C263        C  0.32914596  0.12015674  0.34086742    -0.20600
C264        C  0.33021987  0.15318706  0.31511161     0.25100
C265        C  0.33315858  0.18873619  0.33765034    -0.18200
C266        C  0.33638668  0.19150641  0.38385723    -0.08100
C267        C  0.32800221  0.14843734  0.26549854    -0.18400
C268        C  0.32682474  0.17633375  0.23605647    -0.23200
C269        C  0.32554899  0.17211484  0.18641110     0.27200
C270        C  0.31986817  0.20153075  0.16096041    -0.20000
C271        C  0.31982936  0.20041220  0.11481508    -0.09600
C272        C  0.32728800  0.17095070  0.09170546    -0.10200
C273        C  0.32994954  0.13955371  0.11720735    -0.03100
C274        C  0.32979418  0.14044710  0.16355676    -0.18200
H275        H  0.32907047  0.09560687  0.40478932     0.10900
H276        H  0.32558889  0.09160024  0.32532010     0.10900
H277        H  0.33279267  0.21458637  0.32006915     0.10600
H278        H  0.33657673  0.21840231  0.39946685     0.11700
H279        H  0.32729477  0.12002012  0.25298266     0.11800
H280        H  0.32664528  0.20430735  0.24858144     0.13700
H281        H  0.31526499  0.22570994  0.17690524     0.10200
H282        H  0.31405793  0.22305195  0.09720970     0.12100
H283        H  0.33103900  0.11334066  0.10169441     0.08900
H284        H  0.33303068  0.11614880  0.18102174     0.11700
C285        C  0.32992823  0.67229332  0.04064499     0.30300
C286        C  0.33180045  0.67537956  0.95036048     0.30300
C287        C  0.35351171  0.65155101  0.01708571    -0.05900
C288        C  0.28575275  0.65017273  0.01705211    -0.06700
C289        C  0.35251193  0.71790237  0.01897992    -0.06600
C290        C  0.35325719  0.65300621  0.97141039    -0.05900
C291        C  0.28718457  0.65271665  0.97122493    -0.06700
C292        C  0.35250440  0.71866181  0.97322748    -0.06600
C293        C  0.37370841  0.63271497  0.95483978    -0.32000
N294        N  0.38785667  0.61970252  0.98888295     0.14500
C295        C  0.37666013  0.63135582  0.02690770    -0.32000
H296        H  0.38517299  0.62546555  0.05900890     0.16500
C297        C  0.24588855  0.63532294  0.95624227    -0.30900
N298        N  0.21911205  0.61966439  0.99093776     0.13300
C299        C  0.24263782  0.62854423  0.02830419    -0.30900
C300        C  0.37124184  0.76053424  0.95927362    -0.31200
N301        N  0.38428172  0.78579383  0.99472900     0.13800
H302        H  0.37504479  0.77219309  0.92592408     0.16400
C303        C  0.37336186  0.76072574  0.03143168    -0.31200
H304        H  0.38072188  0.77296614  0.06445739     0.16400
H305        H  0.22936100  0.62063220  0.06112052     0.16400
H306        H  0.37813016  0.62785678  0.92068589     0.16500
H307        H  0.23558511  0.63439376  0.92286486     0.16400
C308        C  0.34010501  0.66134903  0.46031562     0.30300
C309        C  0.33827401  0.65962924  0.55055106     0.30300
C310        C  0.36209576  0.63886109  0.48330945    -0.05900
C311        C  0.36258222  0.70594610  0.48370433    -0.06700
C312        C  0.29524210  0.63903434  0.48253781    -0.06600
C313        C  0.36068423  0.63850118  0.52890556    -0.05900
C314        C  0.36031850  0.70436147  0.52962590    -0.06700
C315        C  0.29466723  0.63846362  0.52826569    -0.06600
C316        C  0.38188857  0.61872205  0.54471328    -0.32000
N317        N  0.39627507  0.60649513  0.51017015     0.14500
C318        C  0.38496649  0.61864164  0.47253560    -0.32000
H319        H  0.39358866  0.61374468  0.43997583     0.16500
C320        C  0.37822685  0.74562137  0.54505732    -0.30900
N321        N  0.39404434  0.77266869  0.51058344     0.13300
C322        C  0.38518997  0.74934017  0.47306993    -0.30900
C323        C  0.25270794  0.61976733  0.54205813    -0.31200
N324        N  0.22767832  0.60805174  0.50631461     0.13800
H325        H  0.24085439  0.61544066  0.57537044     0.16400
C326        C  0.25287806  0.61970639  0.46972398    -0.31200
H327        H  0.24118861  0.61421134  0.43642234     0.16400
H328        H  0.39447297  0.76324995  0.44063775     0.16400
H329        H  0.38657350  0.61357377  0.57870075     0.16500
H330        H  0.37981857  0.75559821  0.57869841     0.16400
C331        C  0.16022168  0.84080693  0.05045627     0.30300
C332        C  0.16256456  0.84118647  0.96017688     0.30300
C333        C  0.13774639  0.86131445  0.02783941    -0.05900
C334        C  0.20501584  0.86393221  0.02980572    -0.06700
C335        C  0.14054275  0.79692300  0.02907548    -0.06600
C336        C  0.13836005  0.86226726  0.98206159    -0.05900
C337        C  0.20674447  0.86534426  0.98398484    -0.06700
C338        C  0.14134972  0.79663296  0.98335605    -0.06600
C339        C  0.11856537  0.88569194  0.97118346    -0.32000
N340        N  0.10612456  0.89700762  0.00869641     0.14500
C341        C  0.11795166  0.88255387  0.04333499    -0.32000
H342        H  0.11306903  0.88777087  0.07725371     0.16500
C343        C  0.25004761  0.88713503  0.97319703    -0.30900
N344        N  0.27335762  0.89688367  0.01077877     0.13300
C345        C  0.24626838  0.88194981  0.04529531    -0.30900
C346        C  0.12172113  0.75388629  0.97160709    -0.31200
N347        N  0.10973912  0.72945740  0.00878756     0.13800
H348        H  0.11578320  0.74139471  0.93859998     0.16400
C349        C  0.12161515  0.75528304  0.04390084    -0.31200
H350        H  0.11674460  0.74413701  0.07749873     0.16400
H351        H  0.25621170  0.88371753  0.07896126     0.16400
H352        H  0.11486434  0.89565054  0.93891101     0.16500
H353        H  0.26369475  0.89438999  0.94051333     0.16400
C354        C  0.17415719  0.83234348  0.44956068     0.30300
C355        C  0.16955575  0.82946298  0.53978532     0.30300
C356        C  0.15312826  0.85518001  0.47053599    -0.05900
C357        C  0.14976897  0.78745197  0.46978180    -0.06700
C358        C  0.21692455  0.85120151  0.47300163    -0.06600
C359        C  0.15083221  0.85467860  0.51604298    -0.05900
C360        C  0.14635111  0.78557789  0.51556177    -0.06700
C361        C  0.21571275  0.85084927  0.51889348    -0.06600
C362        C  0.12947615  0.87660397  0.52616696    -0.32000
N363        N  0.11858704  0.88862975  0.48818784     0.14500
C364        C  0.13289227  0.87573840  0.45409075    -0.32000
H365        H  0.12815080  0.88029188  0.41994521     0.16500
C366        C  0.12502201  0.74236451  0.52639557    -0.30900
N367        N  0.11732342  0.71915273  0.48892716     0.13300
C368        C  0.13345464  0.74627754  0.45453819    -0.30900
C369        C  0.25868446  0.87257406  0.53122580    -0.31200
N370        N  0.28386562  0.88378405  0.49453183     0.13800
H371        H  0.27122425  0.88137719  0.56396202     0.16400
C372        C  0.25876061  0.87048480  0.45907481    -0.31200
H373        H  0.27049629  0.87506750  0.42566248     0.16400
H374        H  0.13402998  0.73632317  0.42131634     0.16400
H375        H  0.12144870  0.88260545  0.55854774     0.16500
H376        H  0.11707837  0.72882956  0.55911183     0.16400
O377        O  0.44354637  0.52929917  0.03016657    -0.88100
C378        C  0.42599875  0.94183249  0.93476271     0.88000
Mg379      Mg  0.49376840  0.59565665  0.02697066     1.58100
O380        O  0.47474112  0.93502075  0.03270497    -0.87800
O381        O  0.41948666  0.97448070  0.07437584    -0.75100
C382        C  0.17339798  0.59762849  0.98823208     0.93000
O383        O  0.46238978  0.54846777  0.92648287    -0.74900
O384        O  0.15508696  0.61844969  0.97728336    -0.82400
Mg385      Mg  0.40553406  0.00428921  0.97115681     1.58000
C386        C  0.08474099  0.92108221  0.01170946     0.92900
O387        O  0.34021251  0.95790773  0.00133793    -0.80700
H388        H  0.47243047  0.92144828  0.09651153    -0.06100
C389        C  0.06078330  0.50319135  0.93318946     0.87900
O390        O  0.03731607  0.58380376  0.07237366    -0.75200
O391        O  0.42160985  0.95435897  0.97082430    -0.88000
O392        O  0.04474284  0.90212465  0.00396291    -0.80800
C393        C  0.40806376  0.83154118  0.99289806     0.93100
C394        C  0.31913329  0.91881692  0.01351133     0.92900
Mg395      Mg  0.08731546  0.51129588  0.02863901     1.58000
O396        O  0.15238328  0.55797966  0.99822640    -0.80700
O397        O  0.03131012  0.96631421  0.07388093    -0.75000
O398        O  0.38934642  0.85206771  0.00359665    -0.80800
O399        O  0.38747782  0.55589329  0.97667842    -0.82500
O400        O  0.10383045  0.66281676  0.00151481    -0.80800
C401        C  0.99174750  0.93971709  0.06871318     0.87300
O402        O  0.07040580  0.56059704  0.03071638    -0.88000
O403        O  0.04852106  0.98694474  0.96977119    -0.88100
O404        O  0.07383322  0.54258012  0.92656257    -0.75100
Mg405      Mg  0.40789136  0.91756410  0.03165589     1.58000
O406        O  0.44734996  0.85026501  0.98140974    -0.82500
H407        H  0.43296378  0.53375077  0.09370267    -0.06200
O408        O  0.01837962  0.58106250  0.96841473    -0.87800
H409        H  0.02145237  0.59320022  0.90419129    -0.06100
H410        H  0.08206583  0.57024753  0.09482226    -0.06200
C411        C  0.50179855  0.57546458  0.93203823     0.87300
C412        C  0.43171573  0.01355305  0.06698866     0.87900
C413        C  0.06450410  0.57177832  0.06694479     0.88000
H414        H  0.05953457  0.98332269  0.90614796    -0.06200
O415        O  0.45334083  0.93015997  0.92873996    -0.75200
Mg416      Mg  0.08501561  0.59862917  0.97075385     1.58000
H417        H  0.40707681  0.94202468  0.90749678    -0.06200
C418        C  0.40928609  0.59569050  0.98551219     0.92900
O419        O  0.04558394  0.66554613  0.02031759    -0.82500
C420        C  0.08531589  0.68378304  0.01085913     0.93000
O421        O  0.33740024  0.89824711  0.02590746    -0.82500
Mg422      Mg  0.99855360  0.92021674  0.97335339     1.58200
O423        O  0.44916903  0.61450658  0.99383253    -0.80800
O424        O  0.10633711  0.96070031  0.02113609    -0.82500
O425        O  0.48500985  0.54850316  0.46922148    -0.88100
C426        C  0.07133649  0.56512958  0.56470245     0.88000
Mg427      Mg  0.41840968  0.49849463  0.47308288     1.58100
O428        O  0.07830698  0.51781119  0.46590969    -0.87800
O429        O  0.03968540  0.57398249  0.42478164    -0.75100
C430        C  0.41623724  0.81847719  0.51325152     0.93000
O431        O  0.46578458  0.53090874  0.57332969    -0.74900
O432        O  0.39572316  0.83695924  0.52512859    -0.82400
Mg433      Mg  0.01024139  0.58710028  0.52808842     1.58000
C434        C  0.09373723  0.90918187  0.48460133     0.92900
O435        O  0.05661243  0.65211490  0.49782542    -0.80700
H436        H  0.08997201  0.51977954  0.40163963    -0.06100
C437        C  0.51160370  0.93122920  0.56543267     0.87900
O438        O  0.42862088  0.95355266  0.42808394    -0.75200
O439        O  0.05978400  0.57069022  0.52857021    -0.88000
O440        O  0.11232613  0.94950564  0.49026163    -0.80800
C441        C  0.18198096  0.58426347  0.50735113     0.93100
C442        C  0.09575977  0.67341001  0.48603239     0.92900
Mg443      Mg  0.50190237  0.90440123  0.47041446     1.58000
O444        O  0.45548048  0.83937336  0.50151707    -0.80700
O445        O  0.04595725  0.96089104  0.42505048    -0.75000
O446        O  0.16164239  0.60277096  0.49544463    -0.80800
O447        O  0.45955470  0.60601047  0.52232576    -0.82500
O448        O  0.35022094  0.88932948  0.50354728    -0.80800
C449        C  0.07255874  0.00056906  0.42983782     0.87300
O450        O  0.45194284  0.92057510  0.46959095    -0.88000
O451        O  0.02695482  0.94335906  0.52852918    -0.88100
O452        O  0.47254323  0.91866450  0.57325344    -0.75100
Mg453      Mg  0.09646578  0.58477956  0.46743565     1.58000
O454        O  0.16313754  0.54493617  0.51852060    -0.82500
H455        H  0.48015051  0.56018774  0.40610267    -0.06200
O456        O  0.43353943  0.97447328  0.53199378    -0.87800
H457        H  0.42082082  0.97210910  0.59602697    -0.06100
H458        H  0.44045517  0.90751294  0.40589928    -0.06200
C459        C  0.43882139  0.49143922  0.56812266     0.87300
C460        C  0.00051594  0.56109274  0.43244288     0.87900
C461        C  0.44000516  0.92589991  0.43358104     0.88000
H462        H  0.03206401  0.93234988  0.59178107    -0.06200
O463        O  0.08244296  0.53729714  0.57036634    -0.75200
Mg464      Mg  0.41564082  0.90751312  0.53085098     1.58000
H465        H  0.07056515  0.58333798  0.59239906    -0.06200
C466        C  0.41990847  0.58467422  0.51306300     0.92900
O467        O  0.34824561  0.94712382  0.48104001    -0.82500
C468        C  0.32960603  0.90786733  0.49271546     0.93000
O469        O  0.11652600  0.65536358  0.47361810    -0.82500
Mg470      Mg  0.09335597  0.99347081  0.52464275     1.58200
O471        O  0.40074379  0.54478352  0.50454064    -0.80800
O472        O  0.05368971  0.88650937  0.47732613    -0.82500
C473        C  0.16436738  0.82637189  0.59071002    -0.02900
C474        C  0.12597980  0.81950117  0.61058159    -0.05500
C475        C  0.12156537  0.81992313  0.65647792    -0.20600
C476        C  0.15452688  0.82524039  0.68496210     0.25100
C477        C  0.19169917  0.82863405  0.66539794    -0.18200
C478        C  0.19621456  0.82866812  0.61928179    -0.08100
C479        C  0.14836036  0.82742504  0.73413258    -0.18400
C480        C  0.17456223  0.82735337  0.76618329    -0.23200
C481        C  0.16892565  0.83017654  0.81533663     0.27200
C482        C  0.19540100  0.82343800  0.84417848    -0.20000
C483        C  0.19279461  0.82677550  0.88995517    -0.09600
C484        C  0.16443385  0.83826909  0.90929196    -0.10200
C485        C  0.13651234  0.84315020  0.88050812    -0.03100
C486        C  0.13898915  0.83970013  0.83448993    -0.18200
H487        H  0.09913819  0.81424763  0.59053822     0.10900
H488        H  0.09192045  0.81602057  0.66981029     0.10900
H489        H  0.21772751  0.83159890  0.68530542     0.10600
H490        H  0.22443439  0.82945703  0.60642143     0.11700
H491        H  0.12015072  0.82871552  0.74403421     0.11800
H492        H  0.20188063  0.82445554  0.75634997     0.13700
H493        H  0.21838017  0.81529797  0.83122200     0.10200
H494        H  0.21332456  0.82031803  0.91043943     0.12300
H495        H  0.11150121  0.84813127  0.89309077     0.08900
H496        H  0.11724362  0.84452597  0.81429862     0.11700
C497        C  0.15650857  0.84211634  0.09969680    -0.02900
C498        C  0.11852213  0.81177437  0.12123554    -0.05500
C499        C  0.11399633  0.81372552  0.16624127    -0.20600
C500        C  0.14638367  0.84724686  0.19017752     0.25100
C501        C  0.18152797  0.88081439  0.16806747    -0.18200
C502        C  0.18605149  0.87857690  0.12313424    -0.08100
C503        C  0.14314475  0.84547737  0.23810131    -0.18400
C504        C  0.17816591  0.86235341  0.26326123    -0.23200
C505        C  0.17574767  0.85415952  0.31045884     0.27200
C506        C  0.20676260  0.88555922  0.33732412    -0.20000
C507        C  0.20620115  0.87803868  0.38198906    -0.09600
C508        C  0.17628381  0.83789835  0.40034194    -0.10200
C509        C  0.14361117  0.80763256  0.37344357    -0.03100
C510        C  0.14396942  0.81514029  0.32876620    -0.18200
H511        H  0.09186384  0.78682716  0.10338822     0.10900
H512        H  0.08547281  0.78868363  0.18244854     0.10900
H513        H  0.20525746  0.90903554  0.18517729     0.10600
H514        H  0.21204470  0.90608775  0.10683304     0.11700
H515        H  0.11145562  0.82640906  0.25274199     0.11800
H516        H  0.20998678  0.88151738  0.24899982     0.13700
H517        H  0.23081388  0.91630802  0.32387048     0.10200
H518        H  0.22861470  0.90422867  0.40230533     0.12300
H519        H  0.11652809  0.77899553  0.38667848     0.08900
H520        H  0.11937183  0.79026318  0.30877014     0.11700
C521        C  0.33634212  0.67661814  0.90100673    -0.02900
C522        C  0.37559474  0.70701530  0.88144634    -0.05500
C523        C  0.38182226  0.70731401  0.83656496    -0.20600
C524        C  0.35030226  0.67531459  0.81063986     0.25100
C525        C  0.31250419  0.64265778  0.83014959    -0.18200
C526        C  0.30614177  0.64277463  0.87509552    -0.08100
C527        C  0.35736099  0.67759588  0.76323238    -0.18400
C528        C  0.34189293  0.64248617  0.73831338    -0.23200
C529        C  0.34378893  0.64575071  0.69038456     0.27200
C530        C  0.31031963  0.61348349  0.66634117    -0.20000
C531        C  0.30846218  0.61818617  0.62135398    -0.09600
C532        C  0.33895882  0.65615648  0.59987520    -0.10200
C533        C  0.37532222  0.68566806  0.62346920    -0.03100
C534        C  0.37741931  0.68098417  0.66841787    -0.18200
H535        H  0.40218505  0.73010105  0.90087031     0.10900
H536        H  0.41179268  0.73192448  0.82218610     0.10900
H537        H  0.28772822  0.61714505  0.81087462     0.10600
H538        H  0.27836588  0.61543449  0.88936138     0.11700
H539        H  0.37505562  0.70941491  0.74858790     0.11800
H540        H  0.32404542  0.61072621  0.75308704     0.13700
H541        H  0.28523221  0.58493452  0.68246530     0.10200
H542        H  0.28355348  0.59153135  0.60346499     0.12300
H543        H  0.40281071  0.71178460  0.60723945     0.08900
H544        H  0.40550159  0.70468990  0.68573934     0.11700
C545        C  0.33805002  0.65960515  0.40938846    -0.02900
C546        C  0.33210080  0.62289463  0.38686580    -0.05500
C547        C  0.32914605  0.62015680  0.34086742    -0.20600
C548        C  0.33021995  0.65318709  0.31511161     0.25100
C549        C  0.33315878  0.68873631  0.33765033    -0.18200
C550        C  0.33638694  0.69150652  0.38385721    -0.08100
C551        C  0.32800216  0.64843732  0.26549854    -0.18400
C552        C  0.32682466  0.67633372  0.23605646    -0.23200
C553        C  0.32554889  0.67211479  0.18641108     0.27200
C554        C  0.31986809  0.70153072  0.16096038    -0.20000
C555        C  0.31982927  0.70041215  0.11481504    -0.09600
C556        C  0.32728792  0.67095065  0.09170544    -0.10200
C557        C  0.32994950  0.63955368  0.11720733    -0.03100
C558        C  0.32979411  0.64044709  0.16355672    -0.18200
H559        H  0.32907033  0.59560683  0.40478932     0.10900
H560        H  0.32558900  0.59160025  0.32532006     0.10900
H561        H  0.33279292  0.71458647  0.32006916     0.10600
H562        H  0.33657714  0.71840253  0.39946682     0.11700
H563        H  0.32729466  0.62002005  0.25298264     0.11800
H564        H  0.32664522  0.70430733  0.24858143     0.13700
H565        H  0.31526496  0.72570989  0.17690518     0.10200
H566        H  0.31405788  0.72305192  0.09720964     0.12100
H567        H  0.33103903  0.61334068  0.10169438     0.08900
H568        H  0.33303069  0.61614878  0.18102174     0.11700
C569        C  0.82992826  0.17229337  0.04064501     0.30300
C570        C  0.83180051  0.17537956  0.95036050     0.30300
C571        C  0.85351174  0.15155103  0.01708575    -0.05900
C572        C  0.78575278  0.15017277  0.01705211    -0.06700
C573        C  0.85251202  0.21790241  0.01897992    -0.06600
C574        C  0.85325720  0.15300619  0.97141043    -0.05900
C575        C  0.78718461  0.15271662  0.97122493    -0.06700
C576        C  0.85250451  0.21866183  0.97322749    -0.06600
C577        C  0.87370843  0.13271498  0.95483979    -0.32000
N578        N  0.88785674  0.11970259  0.98888296     0.14500
C579        C  0.87666022  0.13135590  0.02690772    -0.32000
H580        H  0.88517308  0.12546567  0.05900894     0.16500
C581        C  0.74588859  0.13532286  0.95624227    -0.30900
N582        N  0.71911205  0.11966439  0.99093776     0.13300
C583        C  0.74263787  0.12854430  0.02830419    -0.30900
C584        C  0.87124191  0.26053426  0.95927363    -0.31200
N585        N  0.88428180  0.28579387  0.99472900     0.13800
H586        H  0.87504479  0.27219311  0.92592407     0.16400
C587        C  0.87336189  0.26072578  0.03143169    -0.31200
H588        H  0.88072175  0.27296618  0.06445739     0.16400
H589        H  0.72936107  0.12063239  0.06112055     0.16400
H590        H  0.87813014  0.12785681  0.92068591     0.16500
H591        H  0.73558516  0.13439364  0.92286483     0.16400
C592        C  0.84010496  0.16134904  0.46031564     0.30300
C593        C  0.83827402  0.15962927  0.55055108     0.30300
C594        C  0.86209571  0.13886108  0.48330948    -0.05900
C595        C  0.86258220  0.20594611  0.48370434    -0.06700
C596        C  0.79524209  0.13903442  0.48253785    -0.06600
C597        C  0.86068421  0.13850118  0.52890558    -0.05900
C598        C  0.86031853  0.20436150  0.52962591    -0.06700
C599        C  0.79466723  0.13846371  0.52826574    -0.06600
C600        C  0.88188868  0.11872216  0.54471328    -0.32000
N601        N  0.89627519  0.10649527  0.51017014     0.14500
C602        C  0.88496650  0.11864170  0.47253559    -0.32000
H603        H  0.89358863  0.11374474  0.43997584     0.16500
C604        C  0.87822682  0.24562138  0.54505732    -0.30900
N605        N  0.89404428  0.27266871  0.51058344     0.13300
C606        C  0.88518988  0.24934017  0.47306992    -0.30900
C607        C  0.75270795  0.11976740  0.54205818    -0.31200
N608        N  0.72767837  0.10805181  0.50631466     0.13800
H609        H  0.74085433  0.11544065  0.57537048     0.16400
C610        C  0.75287807  0.11970647  0.46972402    -0.31200
H611        H  0.74118860  0.11421140  0.43642239     0.16400
H612        H  0.89447282  0.26324992  0.44063773     0.16400
H613        H  0.88657367  0.11357393  0.57870075     0.16500
H614        H  0.87981849  0.25559819  0.57869842     0.16400
C615        C  0.66022164  0.34080691  0.05045629     0.30300
C616        C  0.66256455  0.34118645  0.96017691     0.30300
C617        C  0.63774636  0.36131443  0.02783945    -0.05900
C618        C  0.70501582  0.36393222  0.02980574    -0.06700
C619        C  0.64054267  0.29692297  0.02907548    -0.06600
C620        C  0.63836002  0.36226721  0.98206164    -0.05900
C621        C  0.70674448  0.36534420  0.98398486    -0.06700
C622        C  0.64134969  0.29663294  0.98335605    -0.06600
C623        C  0.61856525  0.38569177  0.97118349    -0.32000
N624        N  0.60612447  0.39700754  0.00869642     0.14500
C625        C  0.61795163  0.38255385  0.04333502    -0.32000
H626        H  0.61306905  0.38777090  0.07725374     0.16500
C627        C  0.75004762  0.38713484  0.97319706    -0.30900
N628        N  0.77335764  0.39688354  0.01077879     0.13300
C629        C  0.74626837  0.38194982  0.04529535    -0.30900
C630        C  0.62172114  0.25388628  0.97160709    -0.31200
N631        N  0.60973917  0.22945736  0.00878755     0.13800
H632        H  0.61578323  0.24139472  0.93859997     0.16400
C633        C  0.62161509  0.25528301  0.04390083    -0.31200
H634        H  0.61674450  0.24413697  0.07749872     0.16400
H635        H  0.75621164  0.38371761  0.07896128     0.16400
H636        H  0.61486423  0.39565030  0.93891101     0.16500
H637        H  0.76369480  0.39438977  0.94051334     0.16400
C638        C  0.67415717  0.33234351  0.44956067     0.30300
C639        C  0.66955570  0.32946296  0.53978530     0.30300
C640        C  0.65312825  0.35518004  0.47053598    -0.05900
C641        C  0.64976898  0.28745197  0.46978177    -0.06700
C642        C  0.71692452  0.35120157  0.47300163    -0.06600
C643        C  0.65083217  0.35467858  0.51604296    -0.05900
C644        C  0.64635113  0.28557789  0.51556175    -0.06700
C645        C  0.71571271  0.35084931  0.51889348    -0.06600
C646        C  0.62947607  0.37660392  0.52616699    -0.32000
N647        N  0.61858701  0.38862975  0.48818785     0.14500
C648        C  0.63289226  0.37573844  0.45409076    -0.32000
H649        H  0.62815078  0.38029191  0.41994523     0.16500
C650        C  0.62502214  0.24236454  0.52639559    -0.30900
N651        N  0.61732355  0.21915274  0.48892718     0.13300
C652        C  0.63345464  0.24627754  0.45453819    -0.30900
C653        C  0.75868441  0.37257407  0.53122581    -0.31200
N654        N  0.78386558  0.38378403  0.49453186     0.13800
H655        H  0.77122420  0.38137716  0.56396206     0.16400
C656        C  0.75876058  0.37048485  0.45907483    -0.31200
H657        H  0.77049626  0.37506755  0.42566249     0.16400
H658        H  0.63402983  0.23632310  0.42131630     0.16400
H659        H  0.62144861  0.38260533  0.55854770     0.16500
H660        H  0.61707852  0.22882962  0.55911186     0.16400
O661        O  0.94354632  0.02929920  0.03016659    -0.88100
C662        C  0.92599870  0.44183236  0.93476269     0.88000
Mg663      Mg  0.99376836  0.09565665  0.02697067     1.58100
O664        O  0.97474103  0.43502062  0.03270498    -0.87800
O665        O  0.91948661  0.47448069  0.07437585    -0.75100
C666        C  0.67339799  0.09762855  0.98823209     0.93000
O667        O  0.96238971  0.04846769  0.92648290    -0.74900
O668        O  0.65508697  0.11844976  0.97728336    -0.82400
Mg669      Mg  0.90553403  0.50428918  0.97115679     1.58000
C670        C  0.58474095  0.42108218  0.01170950     0.92900
O671        O  0.84021244  0.45790772  0.00133797    -0.80700
H672        H  0.97243041  0.42144839  0.09651160    -0.06100
C673        C  0.56078322  0.00319136  0.93318946     0.87900
O674        O  0.53731627  0.08380382  0.07237365    -0.75200
O675        O  0.92160982  0.45435886  0.97082430    -0.88000
O676        O  0.54474282  0.40212469  0.00396286    -0.80800
C677        C  0.90806380  0.33154122  0.99289806     0.93100
C678        C  0.81913329  0.41881688  0.01351134     0.92900
Mg679      Mg  0.58731547  0.01129588  0.02863904     1.58000
O680        O  0.65238326  0.05797970  0.99822638    -0.80700
O681        O  0.53131011  0.46631427  0.07388089    -0.75000
O682        O  0.88934641  0.35206770  0.00359665    -0.80800
O683        O  0.88747771  0.05589327  0.97667840    -0.82500
O684        O  0.60383031  0.16281664  0.00151483    -0.80800
C685        C  0.49174750  0.43971702  0.06871320     0.87300
O686        O  0.57040597  0.06059710  0.03071638    -0.88000
O687        O  0.54852101  0.48694475  0.96977122    -0.88100
O688        O  0.57383317  0.04258014  0.92656257    -0.75100
Mg689      Mg  0.90789133  0.41756407  0.03165590     1.58000
O690        O  0.94735001  0.35026510  0.98140973    -0.82500
H691        H  0.93296366  0.03375078  0.09370268    -0.06200
O692        O  0.51837962  0.08106249  0.96841470    -0.87800
H693        H  0.52145226  0.09320028  0.90419126    -0.06100
H694        H  0.58206605  0.07024756  0.09482230    -0.06200
C695        C  0.00179846  0.07546454  0.93203822     0.87300
C696        C  0.93171574  0.51355305  0.06698865     0.87900
C697        C  0.56450428  0.07177837  0.06694477     0.88000
H698        H  0.55953463  0.48332263  0.90614800    -0.06200
O699        O  0.95334091  0.43015995  0.92873992    -0.75200
Mg700      Mg  0.58501558  0.09862917  0.97075383     1.58000
H701        H  0.90707676  0.44202445  0.90749688    -0.06200
C702        C  0.90928606  0.09569047  0.98551218     0.92900
O703        O  0.54558390  0.16554617  0.02031758    -0.82500
C704        C  0.58531585  0.18378301  0.01085913     0.93000
O705        O  0.83740033  0.39824716  0.02590743    -0.82500
Mg706      Mg  0.49855356  0.42021675  0.97335338     1.58200
O707        O  0.94916899  0.11450649  0.99383251    -0.80800
O708        O  0.60633707  0.46070025  0.02113629    -0.82500
O709        O  0.98500989  0.04850323  0.46922145    -0.88100
C710        C  0.57133665  0.06512957  0.56470247     0.88000
Mg711      Mg  0.91840969  0.99849466  0.47308287     1.58100
O712        O  0.57830720  0.01781123  0.46590973    -0.87800
O713        O  0.53968539  0.07398253  0.42478165    -0.75100
C714        C  0.91623722  0.31847720  0.51325152     0.93000
O715        O  0.96578458  0.03090874  0.57332966    -0.74900
O716        O  0.89572319  0.33695930  0.52512863    -0.82400
Mg717      Mg  0.51024142  0.08710032  0.52808843     1.58000
C718        C  0.59373720  0.40918189  0.48460137     0.92900
O719        O  0.55661254  0.15211495  0.49782547    -0.80700
H720        H  0.58997222  0.01977951  0.40163976    -0.06100
C721        C  0.01160361  0.43122918  0.56543268     0.87900
O722        O  0.92862096  0.45355275  0.42808390    -0.75200
O723        O  0.55978415  0.07069025  0.52857023    -0.88000
O724        O  0.61232610  0.44950567  0.49026163    -0.80800
C725        C  0.68198105  0.08426350  0.50735121     0.93100
C726        C  0.59575988  0.17341003  0.48603242     0.92900
Mg727      Mg  0.00190232  0.40440119  0.47041444     1.58000
O728        O  0.95548045  0.33937334  0.50151703    -0.80700
O729        O  0.54595728  0.46089113  0.42505045    -0.75000
O730        O  0.66164247  0.10277093  0.49544458    -0.80800
O731        O  0.95955477  0.10601047  0.52232574    -0.82500
O732        O  0.85022092  0.38932947  0.50354727    -0.80800
C733        C  0.57255878  0.50056910  0.42983784     0.87300
O734        O  0.95194280  0.42057511  0.46959099    -0.88000
O735        O  0.52695492  0.44335911  0.52852919    -0.88100
O736        O  0.97254317  0.41866458  0.57325346    -0.75100
Mg737      Mg  0.59646589  0.08477959  0.46743563     1.58000
O738        O  0.66313770  0.04493625  0.51852087    -0.82500
H739        H  0.98015058  0.06018781  0.40610255    -0.06200
O740        O  0.93353934  0.47447329  0.53199376    -0.87800
H741        H  0.92082076  0.47210916  0.59602692    -0.06100
H742        H  0.94045509  0.40751292  0.40589939    -0.06200
C743        C  0.93882137  0.99143921  0.56812269     0.87300
C744        C  0.50051592  0.06109279  0.43244289     0.87900
C745        C  0.94000514  0.42589990  0.43358104     0.88000
H746        H  0.53206416  0.43235002  0.59178106    -0.06200
O747        O  0.58244304  0.03729708  0.57036637    -0.75200
Mg748      Mg  0.91564080  0.40751316  0.53085099     1.58000
H749        H  0.57056538  0.08333800  0.59239911    -0.06200
C750        C  0.91990854  0.08467428  0.51306297     0.92900
O751        O  0.84824556  0.44712380  0.48103997    -0.82500
C752        C  0.82960599  0.40786731  0.49271547     0.93000
O753        O  0.61652609  0.15536358  0.47361806    -0.82500
Mg754      Mg  0.59335603  0.49347086  0.52464275     1.58200
O755        O  0.90074380  0.04478357  0.50454063    -0.80800
O756        O  0.55368969  0.38650940  0.47732613    -0.82500
C757        C  0.66436728  0.32637182  0.59071001    -0.02900
C758        C  0.62597973  0.31950113  0.61058161    -0.05500
C759        C  0.62156535  0.31992319  0.65647794    -0.20600
C760        C  0.65452687  0.32524045  0.68496212     0.25100
C761        C  0.69169913  0.32863410  0.66539794    -0.18200
C762        C  0.69621451  0.32866810  0.61928178    -0.08100
C763        C  0.64836033  0.32742505  0.73413263    -0.18400
C764        C  0.67456228  0.32735341  0.76618333    -0.23200
C765        C  0.66892561  0.33017651  0.81533667     0.27200
C766        C  0.69540090  0.32343787  0.84417851    -0.20000
C767        C  0.69279458  0.32677549  0.88995522    -0.09600
C768        C  0.66443384  0.33826913  0.90929197    -0.10200
C769        C  0.63651235  0.34315024  0.88050814    -0.03100
C770        C  0.63898913  0.33970017  0.83448993    -0.18200
H771        H  0.59913805  0.31424758  0.59053823     0.10900
H772        H  0.59192038  0.31602061  0.66981035     0.10900
H773        H  0.71772750  0.33159896  0.68530542     0.10600
H774        H  0.72443424  0.32945700  0.60642144     0.11700
H775        H  0.62015076  0.32871545  0.74403425     0.11800
H776        H  0.70188066  0.32445565  0.75635004     0.13700
H777        H  0.71837997  0.31529777  0.83122207     0.10200
H778        H  0.71332452  0.32031808  0.91043941     0.12300
H779        H  0.61150115  0.34813126  0.89309075     0.08900
H780        H  0.61724367  0.34452601  0.81429868     0.11700
C781        C  0.65650846  0.34211625  0.09969681    -0.02900
C782        C  0.61852208  0.31177431  0.12123558    -0.05500
C783        C  0.61399627  0.31372541  0.16624132    -0.20600
C784        C  0.64638361  0.34724684  0.19017753     0.25100
C785        C  0.68152786  0.38081436  0.16806746    -0.18200
C786        C  0.68605143  0.37857686  0.12313423    -0.08100
C787        C  0.64314477  0.34547732  0.23810132    -0.18400
C788        C  0.67816589  0.36235330  0.26326122    -0.23200
C789        C  0.67574776  0.35415944  0.31045882     0.27200
C790        C  0.70676254  0.38555918  0.33732411    -0.20000
C791        C  0.70620109  0.37803871  0.38198906    -0.09600
C792        C  0.67628373  0.33789834  0.40034194    -0.10200
C793        C  0.64361121  0.30763257  0.37344355    -0.03100
C794        C  0.64396944  0.31514013  0.32876615    -0.18200
H795        H  0.59186367  0.28682699  0.10338823     0.10900
H796        H  0.58547287  0.28868357  0.18244858     0.10900
H797        H  0.70525737  0.40903557  0.18517725     0.10600
H798        H  0.71204453  0.40608758  0.10683306     0.11700
H799        H  0.61145559  0.32640889  0.25274208     0.11800
H800        H  0.70998686  0.38151744  0.24899972     0.13700
H801        H  0.73081380  0.41630807  0.32387047     0.10200
H802        H  0.72861457  0.40422866  0.40230530     0.12300
H803        H  0.61652795  0.27899537  0.38667852     0.08900
H804        H  0.61937201  0.29026316  0.30877018     0.11700
C805        C  0.83634218  0.17661813  0.90100675    -0.02900
C806        C  0.87559480  0.20701533  0.88144634    -0.05500
C807        C  0.88182229  0.20731401  0.83656499    -0.20600
C808        C  0.85030231  0.17531466  0.81063986     0.25100
C809        C  0.81250417  0.14265788  0.83014957    -0.18200
C810        C  0.80614181  0.14277470  0.87509550    -0.08100
C811        C  0.85736110  0.17759592  0.76323240    -0.18400
C812        C  0.84189294  0.14248622  0.73831338    -0.23200
C813        C  0.84378893  0.14575077  0.69038456     0.27200
C814        C  0.81031970  0.11348347  0.66634118    -0.20000
C815        C  0.80846218  0.11818621  0.62135398    -0.09600
C816        C  0.83895885  0.15615654  0.59987522    -0.10200
C817        C  0.87532225  0.18566805  0.62346919    -0.03100
C818        C  0.87741934  0.18098425  0.66841788    -0.18200
H819        H  0.90218509  0.23010108  0.90087030     0.10900
H820        H  0.91179283  0.23192449  0.82218610     0.10900
H821        H  0.78772822  0.11714518  0.81087459     0.10600
H822        H  0.77836585  0.11543450  0.88936138     0.11700
H823        H  0.87505585  0.20941497  0.74858794     0.11800
H824        H  0.82404534  0.11072626  0.75308704     0.13700
H825        H  0.78523242  0.08493449  0.68246524     0.10200
H826        H  0.78355352  0.09153147  0.60346503     0.12300
H827        H  0.90281083  0.21178460  0.60723940     0.08900
H828        H  0.90550154  0.20468993  0.68573931     0.11700
C829        C  0.83804992  0.15960512  0.40938848    -0.02900
C830        C  0.83210074  0.12289462  0.38686584    -0.05500
C831        C  0.82914604  0.12015675  0.34086744    -0.20600
C832        C  0.83021995  0.15318706  0.31511160     0.25100
C833        C  0.83315871  0.18873622  0.33765031    -0.18200
C834        C  0.83638677  0.19150646  0.38385721    -0.08100
C835        C  0.82800213  0.14843721  0.26549853    -0.18400
C836        C  0.82682469  0.17633372  0.23605649    -0.23200
C837        C  0.82554884  0.17211478  0.18641110     0.27200
C838        C  0.81986802  0.20153072  0.16096042    -0.20000
C839        C  0.81982921  0.20041218  0.11481508    -0.09600
C840        C  0.82728789  0.17095071  0.09170546    -0.10200
C841        C  0.82994943  0.13955370  0.11720733    -0.03100
C842        C  0.82979402  0.14044707  0.16355674    -0.18200
H843        H  0.82907029  0.09560681  0.40478938     0.10900
H844        H  0.82558902  0.09160027  0.32532014     0.10900
H845        H  0.83279282  0.21458640  0.32006911     0.10600
H846        H  0.83657689  0.21840240  0.39946678     0.11700
H847        H  0.82729451  0.12001995  0.25298269     0.11800
H848        H  0.82664539  0.20430729  0.24858142     0.13700
H849        H  0.81526486  0.22570990  0.17690528     0.10200
H850        H  0.81405782  0.22305196  0.09720969     0.12100
H851        H  0.83103898  0.11334076  0.10169440     0.08900
H852        H  0.83303057  0.11614877  0.18102171     0.11700
C853        C  0.82992826  0.67229334  0.04064500     0.30300
C854        C  0.83180052  0.67537956  0.95036049     0.30300
C855        C  0.85351174  0.65155101  0.01708572    -0.05900
C856        C  0.78575279  0.65017274  0.01705212    -0.06700
C857        C  0.85251199  0.71790238  0.01897992    -0.06600
C858        C  0.85325722  0.65300620  0.97141041    -0.05900
C859        C  0.78718463  0.65271664  0.97122494    -0.06700
C860        C  0.85250452  0.71866181  0.97322749    -0.06600
C861        C  0.87370838  0.63271492  0.95483978    -0.32000
N862        N  0.88785664  0.61970248  0.98888296     0.14500
C863        C  0.87666015  0.63135582  0.02690771    -0.32000
H864        H  0.88517303  0.62546561  0.05900893     0.16500
C865        C  0.74588861  0.63532292  0.95624225    -0.30900
N866        N  0.71911207  0.61966438  0.99093775     0.13300
C867        C  0.74263786  0.62854426  0.02830416    -0.30900
C868        C  0.87124198  0.76053424  0.95927362    -0.31200
N869        N  0.88428176  0.78579383  0.99472900     0.13800
H870        H  0.87504496  0.77219310  0.92592407     0.16400
C871        C  0.87336184  0.76072574  0.03143169    -0.31200
H872        H  0.88072173  0.77296613  0.06445739     0.16400
H873        H  0.72936102  0.62063228  0.06112054     0.16400
H874        H  0.87813011  0.62785675  0.92068590     0.16500
H875        H  0.73558523  0.63439380  0.92286488     0.16400
C876        C  0.84010497  0.66134903  0.46031562     0.30300
C877        C  0.83827400  0.65962924  0.55055107     0.30300
C878        C  0.86209571  0.63886106  0.48330947    -0.05900
C879        C  0.86258217  0.70594610  0.48370433    -0.06700
C880        C  0.79524210  0.63903435  0.48253781    -0.06600
C881        C  0.86068418  0.63850115  0.52890558    -0.05900
C882        C  0.86031852  0.70436148  0.52962590    -0.06700
C883        C  0.79466723  0.63846365  0.52826570    -0.06600
C884        C  0.88188860  0.61872208  0.54471328    -0.32000
N885        N  0.89627509  0.60649516  0.51017015     0.14500
C886        C  0.88496645  0.61864162  0.47253559    -0.32000
H887        H  0.89358860  0.61374469  0.43997584     0.16500
C888        C  0.87822693  0.74562138  0.54505734    -0.30900
N889        N  0.89404429  0.77266869  0.51058344     0.13300
C890        C  0.88518983  0.74934017  0.47306992    -0.30900
C891        C  0.75270794  0.61976732  0.54205812    -0.31200
N892        N  0.72767837  0.60805175  0.50631461     0.13800
H893        H  0.74085434  0.61544061  0.57537041     0.16400
C894        C  0.75287808  0.61970637  0.46972396    -0.31200
H895        H  0.74118865  0.61421133  0.43642236     0.16400
H896        H  0.89447278  0.76324995  0.44063773     0.16400
H897        H  0.88657359  0.61357387  0.57870076     0.16500
H898        H  0.87981874  0.75559822  0.57869843     0.16400
C899        C  0.66022168  0.84080693  0.05045625     0.30300
C900        C  0.66256457  0.84118647  0.96017686     0.30300
C901        C  0.63774638  0.86131443  0.02783938    -0.05900
C902        C  0.70501584  0.86393224  0.02980570    -0.06700
C903        C  0.64054277  0.79692300  0.02907543    -0.06600
C904        C  0.63836008  0.86226728  0.98206159    -0.05900
C905        C  0.70674450  0.86534424  0.98398482    -0.06700
C906        C  0.64134973  0.79663296  0.98335602    -0.06600
C907        C  0.61856542  0.88569199  0.97118345    -0.32000
N908        N  0.60612457  0.89700765  0.00869641     0.14500
C909        C  0.61795167  0.88255389  0.04333499    -0.32000
H910        H  0.61306904  0.88777086  0.07725367     0.16500
C911        C  0.75004765  0.88713498  0.97319706    -0.30900
N912        N  0.77335763  0.89688360  0.01077879     0.13300
C913        C  0.74626837  0.88194983  0.04529534    -0.30900
C914        C  0.62172119  0.75388627  0.97160702    -0.31200
N915        N  0.60973919  0.72945740  0.00878755     0.13800
H916        H  0.61578333  0.74139472  0.93860006     0.16400
C917        C  0.62161522  0.75528305  0.04390079    -0.31200
H918        H  0.61674464  0.74413704  0.07749870     0.16400
H919        H  0.75621163  0.88371757  0.07896127     0.16400
H920        H  0.61486440  0.89565054  0.93891101     0.16500
H921        H  0.76369486  0.89438999  0.94051334     0.16400
C922        C  0.67415721  0.83234347  0.44956068     0.30300
C923        C  0.66955571  0.82946296  0.53978531     0.30300
C924        C  0.65312827  0.85518002  0.47053598    -0.05900
C925        C  0.64976895  0.78745194  0.46978178    -0.06700
C926        C  0.71692455  0.85120150  0.47300165    -0.06600
C927        C  0.65083221  0.85467861  0.51604297    -0.05900
C928        C  0.64635109  0.78557787  0.51556177    -0.06700
C929        C  0.71571274  0.85084925  0.51889349    -0.06600
C930        C  0.62947613  0.87660398  0.52616697    -0.32000
N931        N  0.61858700  0.88862974  0.48818783     0.14500
C932        C  0.63289229  0.87573844  0.45409075    -0.32000
H933        H  0.62815086  0.88029194  0.41994521     0.16500
C934        C  0.62502206  0.74236450  0.52639559    -0.30900
N935        N  0.61732347  0.71915270  0.48892719     0.13300
C936        C  0.63345459  0.74627750  0.45453820    -0.30900
C937        C  0.75868444  0.87257402  0.53122580    -0.31200
N938        N  0.78386560  0.88378403  0.49453184     0.13800
H939        H  0.77122426  0.88137717  0.56396205     0.16400
C940        C  0.75876059  0.87048477  0.45907482    -0.31200
H941        H  0.77049625  0.87506743  0.42566247     0.16400
H942        H  0.63402982  0.73632307  0.42131633     0.16400
H943        H  0.62144870  0.88260546  0.55854769     0.16500
H944        H  0.61707845  0.72882957  0.55911187     0.16400
O945        O  0.94354638  0.52929916  0.03016656    -0.88100
C946        C  0.92599875  0.94183251  0.93476270     0.88000
Mg947      Mg  0.99376835  0.59565665  0.02697066     1.58100
O948        O  0.97474112  0.93502072  0.03270493    -0.87800
O949        O  0.91948663  0.97448070  0.07437582    -0.75100
C950        C  0.67339797  0.59762851  0.98823206     0.93000
O951        O  0.96238984  0.54846775  0.92648285    -0.74900
O952        O  0.65508696  0.61844972  0.97728337    -0.82400
Mg953      Mg  0.90553398  0.00428920  0.97115682     1.58000
C954        C  0.58474094  0.92108220  0.01170952     0.92900
O955        O  0.84021246  0.95790772  0.00133797    -0.80700
H956        H  0.97243037  0.92144835  0.09651152    -0.06100
C957        C  0.56078334  0.50319136  0.93318950     0.87900
O958        O  0.53731618  0.58380375  0.07237366    -0.75200
O959        O  0.92160990  0.95435901  0.97082433    -0.88000
O960        O  0.54474281  0.90212464  0.00396289    -0.80800
C961        C  0.90806374  0.83154118  0.99289806     0.93100
C962        C  0.81913330  0.91881690  0.01351136     0.92900
Mg963      Mg  0.58731545  0.51129588  0.02863905     1.58000
O964        O  0.65238326  0.55797967  0.99822638    -0.80700
O965        O  0.53131017  0.96631418  0.07388089    -0.75000
O966        O  0.88934637  0.85206767  0.00359664    -0.80800
O967        O  0.88747784  0.55589328  0.97667842    -0.82500
O968        O  0.60383040  0.66281672  0.00151477    -0.80800
C969        C  0.49174754  0.93971707  0.06871319     0.87300
O970        O  0.57040590  0.56059707  0.03071638    -0.88000
O971        O  0.54852096  0.98694476  0.96977122    -0.88100
O972        O  0.57383333  0.54258012  0.92656256    -0.75100
Mg973      Mg  0.90789139  0.91756410  0.03165587     1.58000
O974        O  0.94734995  0.85026505  0.98140974    -0.82500
H975        H  0.93296368  0.53375083  0.09370263    -0.06200
O976        O  0.51837958  0.58106244  0.96841471    -0.87800
H977        H  0.52145228  0.59320032  0.90419130    -0.06100
H978        H  0.58206596  0.57024750  0.09482230    -0.06200
C979        C  0.00179861  0.57546456  0.93203823     0.87300
C980        C  0.93171570  0.01355306  0.06698869     0.87900
C981        C  0.56450419  0.57177831  0.06694477     0.88000
H982        H  0.55953447  0.98332271  0.90614801    -0.06200
O983        O  0.95334083  0.93015995  0.92873994    -0.75200
Mg984      Mg  0.58501559  0.59862916  0.97075383     1.58000
H985        H  0.90707684  0.94202470  0.90749689    -0.06200
C986        C  0.90928609  0.59569049  0.98551218     0.92900
O987        O  0.54558395  0.66554617  0.02031762    -0.82500
C988        C  0.58531590  0.68378305  0.01085912     0.93000
O989        O  0.83740032  0.89824715  0.02590743    -0.82500
Mg990      Mg  0.49855354  0.92021674  0.97335341     1.58200
O991        O  0.94916902  0.61450661  0.99383250    -0.80800
O992        O  0.60633701  0.96070026  0.02113629    -0.82500
O993        O  0.98500984  0.54850321  0.46922146    -0.88100
C994        C  0.57133659  0.56512959  0.56470245     0.88000
Mg995      Mg  0.91840972  0.49849464  0.47308286     1.58100
O996        O  0.57830708  0.51781120  0.46590968    -0.87800
O997        O  0.53968542  0.57398252  0.42478162    -0.75100
C998        C  0.91623721  0.81847719  0.51325153     0.93000
O999        O  0.96578472  0.53090873  0.57332968    -0.74900
O1000       O  0.89572317  0.83695927  0.52512863    -0.82400
Mg1001     Mg  0.51024136  0.58710027  0.52808843     1.58000
C1002       C  0.59373717  0.90918188  0.48460134     0.92900
O1003       O  0.55661246  0.65211489  0.49782547    -0.80700
H1004       H  0.58997215  0.51977953  0.40163963    -0.06100
C1005       C  0.01160355  0.93122912  0.56543270     0.87900
O1006       O  0.92862089  0.95355268  0.42808395    -0.75200
O1007       O  0.55978405  0.57069022  0.52857023    -0.88000
O1008       O  0.61232607  0.94950565  0.49026167    -0.80800
C1009       C  0.68198100  0.58426346  0.50735112     0.93100
C1010       C  0.59575980  0.67340998  0.48603242     0.92900
Mg1011     Mg  0.00190234  0.90440114  0.47041443     1.58000
O1012       O  0.95548044  0.83937333  0.50151702    -0.80700
O1013       O  0.54595723  0.96089117  0.42505046    -0.75000
O1014       O  0.66164245  0.60277094  0.49544462    -0.80800
O1015       O  0.95955473  0.60601047  0.52232577    -0.82500
O1016       O  0.85022092  0.88932950  0.50354723    -0.80800
C1017       C  0.57255888  0.00056916  0.42983785     0.87300
O1018       O  0.95194282  0.92057509  0.46959096    -0.88000
O1019       O  0.52695497  0.94335924  0.52852922    -0.88100
O1020       O  0.97254310  0.91866453  0.57325346    -0.75100
Mg1021     Mg  0.59646583  0.58477956  0.46743563     1.58000
O1022       O  0.66313761  0.54493616  0.51852060    -0.82500
H1023       H  0.98015049  0.56018776  0.40610256    -0.06200
O1024       O  0.93353928  0.97447327  0.53199377    -0.87800
H1025       H  0.92082067  0.97210915  0.59602693    -0.06100
H1026       H  0.94045506  0.90751285  0.40589934    -0.06200
C1027       C  0.93882146  0.49143922  0.56812269     0.87300
C1028       C  0.50051592  0.56109272  0.43244287     0.87900
C1029       C  0.94000514  0.92589989  0.43358105     0.88000
H1030       H  0.53206421  0.93234988  0.59178109    -0.06200
O1031       O  0.58244305  0.53729715  0.57036634    -0.75200
Mg1032     Mg  0.91564076  0.90751313  0.53085097     1.58000
H1033       H  0.57056531  0.58333803  0.59239906    -0.06200
C1034       C  0.91990852  0.58467423  0.51306298     0.92900
O1035       O  0.84824554  0.94712384  0.48104001    -0.82500
C1036       C  0.82960599  0.90786734  0.49271545     0.93000
O1037       O  0.61652601  0.65536354  0.47361806    -0.82500
Mg1038     Mg  0.59335611  0.99347090  0.52464288     1.58200
O1039       O  0.90074383  0.54478353  0.50454062    -0.80800
O1040       O  0.55368965  0.88650938  0.47732613    -0.82500
C1041       C  0.66436729  0.82637189  0.59071001    -0.02900
C1042       C  0.62597971  0.81950114  0.61058161    -0.05500
C1043       C  0.62156533  0.81992313  0.65647793    -0.20600
C1044       C  0.65452684  0.82524039  0.68496210     0.25100
C1045       C  0.69169912  0.82863405  0.66539791    -0.18200
C1046       C  0.69621451  0.82866813  0.61928176    -0.08100
C1047       C  0.64836038  0.82742503  0.73413259    -0.18400
C1048       C  0.67456228  0.82735338  0.76618329    -0.23200
C1049       C  0.66892563  0.83017653  0.81533663     0.27200
C1050       C  0.69540099  0.82343798  0.84417846    -0.20000
C1051       C  0.69279459  0.82677553  0.88995515    -0.09600
C1052       C  0.66443383  0.83826911  0.90929194    -0.10200
C1053       C  0.63651234  0.84315018  0.88050810    -0.03100
C1054       C  0.63898910  0.83970014  0.83448990    -0.18200
H1055       H  0.59913804  0.81424756  0.59053822     0.10900
H1056       H  0.59192033  0.81602053  0.66981038     0.10900
H1057       H  0.71772748  0.83159891  0.68530537     0.10600
H1058       H  0.72443424  0.82945705  0.60642141     0.11700
H1059       H  0.62015081  0.82871551  0.74403424     0.11800
H1060       H  0.70188068  0.82445556  0.75635000     0.13700
H1061       H  0.71838009  0.81529797  0.83122203     0.10200
H1062       H  0.71332459  0.82031809  0.91043942     0.12300
H1063       H  0.61150109  0.84813126  0.89309080     0.08900
H1064       H  0.61724367  0.84452599  0.81429865     0.11700
C1065       C  0.65650855  0.84211633  0.09969678    -0.02900
C1066       C  0.61852211  0.81177439  0.12123554    -0.05500
C1067       C  0.61399638  0.81372550  0.16624129    -0.20600
C1068       C  0.64638374  0.84724683  0.19017753     0.25100
C1069       C  0.68152802  0.88081436  0.16806746    -0.18200
C1070       C  0.68605146  0.87857692  0.12313421    -0.08100
C1071       C  0.64314479  0.84547742  0.23810131    -0.18400
C1072       C  0.67816593  0.86235338  0.26326123    -0.23200
C1073       C  0.67574771  0.85415951  0.31045884     0.27200
C1074       C  0.70676259  0.88555926  0.33732412    -0.20000
C1075       C  0.70620122  0.87803868  0.38198905    -0.09600
C1076       C  0.67628388  0.83789835  0.40034194    -0.10200
C1077       C  0.64361127  0.80763254  0.37344356    -0.03100
C1078       C  0.64396949  0.81514025  0.32876618    -0.18200
H1079       H  0.59186378  0.78682722  0.10338819     0.10900
H1080       H  0.58547288  0.78868361  0.18244858     0.10900
H1081       H  0.70525754  0.90903551  0.18517727     0.10600
H1082       H  0.71204458  0.90608778  0.10683298     0.11700
H1083       H  0.61145565  0.82640918  0.25274202     0.11800
H1084       H  0.70998682  0.88151728  0.24899978     0.13700
H1085       H  0.73081377  0.91630811  0.32387051     0.10200
H1086       H  0.72861478  0.90422867  0.40230532     0.12300
H1087       H  0.61652817  0.77899553  0.38667847     0.08900
H1088       H  0.61937192  0.79026319  0.30877015     0.11700
C1089       C  0.83634218  0.67661812  0.90100675    -0.02900
C1090       C  0.87559481  0.70701522  0.88144633    -0.05500
C1091       C  0.88182229  0.70731395  0.83656496    -0.20600
C1092       C  0.85030223  0.67531461  0.81063986     0.25100
C1093       C  0.81250411  0.64265785  0.83014958    -0.18200
C1094       C  0.80614176  0.64277469  0.87509551    -0.08100
C1095       C  0.85736101  0.67759587  0.76323239    -0.18400
C1096       C  0.84189285  0.64248617  0.73831338    -0.23200
C1097       C  0.84378885  0.64575072  0.69038456     0.27200
C1098       C  0.81031962  0.61348345  0.66634116    -0.20000
C1099       C  0.80846211  0.61818619  0.62135399    -0.09600
C1100       C  0.83895877  0.65615650  0.59987521    -0.10200
C1101       C  0.87532218  0.68566800  0.62346920    -0.03100
C1102       C  0.87741926  0.68098420  0.66841788    -0.18200
H1103       H  0.90218520  0.73010097  0.90087033     0.10900
H1104       H  0.91179275  0.73192436  0.82218608     0.10900
H1105       H  0.78772813  0.61714514  0.81087461     0.10600
H1106       H  0.77836582  0.61543451  0.88936140     0.11700
H1107       H  0.87505576  0.70941491  0.74858793     0.11800
H1108       H  0.82404525  0.61072620  0.75308704     0.13700
H1109       H  0.78523227  0.58493441  0.68246526     0.10200
H1110       H  0.78355339  0.59153137  0.60346501     0.12300
H1111       H  0.90281077  0.71178452  0.60723940     0.08900
H1112       H  0.90550147  0.70468988  0.68573931     0.11700
C1113       C  0.83804996  0.65960515  0.40938846    -0.02900
C1114       C  0.83210082  0.62289468  0.38686579    -0.05500
C1115       C  0.82914603  0.62015680  0.34086742    -0.20600
C1116       C  0.83021993  0.65318711  0.31511160     0.25100
C1117       C  0.83315868  0.68873627  0.33765032    -0.18200
C1118       C  0.83638679  0.69150647  0.38385720    -0.08100
C1119       C  0.82800212  0.64843729  0.26549854    -0.18400
C1120       C  0.82682470  0.67633376  0.23605646    -0.23200
C1121       C  0.82554884  0.67211477  0.18641108     0.27200
C1122       C  0.81986812  0.70153078  0.16096037    -0.20000
C1123       C  0.81982926  0.70041214  0.11481504    -0.09600
C1124       C  0.82728793  0.67095068  0.09170544    -0.10200
C1125       C  0.82994941  0.63955364  0.11720734    -0.03100
C1126       C  0.82979395  0.64044703  0.16355673    -0.18200
H1127       H  0.82907043  0.59560686  0.40478934     0.10900
H1128       H  0.82558893  0.59160027  0.32532009     0.10900
H1129       H  0.83279274  0.71458642  0.32006914     0.10600
H1130       H  0.83657695  0.71840248  0.39946685     0.11700
H1131       H  0.82729449  0.62002001  0.25298268     0.11800
H1132       H  0.82664543  0.70430743  0.24858140     0.13700
H1133       H  0.81526512  0.72571000  0.17690516     0.10200
H1134       H  0.81405783  0.72305195  0.09720959     0.12100
H1135       H  0.83103894  0.61334065  0.10169439     0.08900
H1136       H  0.83303050  0.61614868  0.18102175     0.11700
loop_ 
_geom_bond_atom_site_label_1 
_geom_bond_atom_site_label_2 
_geom_bond_distance 
_geom_bond_site_symmetry_2 
_ccdc_geom_bond_type 
C1            C3   1.562       .  S
C1            C5   1.563       .  S
C1            C4   1.558       .  S
C1          C272   1.561       .  S
C2            C6   1.515       .  S
C2            C8   1.522       .  S
C2            C7   1.525       .  S
C2          C237   1.513       .  S
C3           C11   1.390       .  A
C3            C6   1.396   1_554  A
C4           C15   1.384       .  A
C4            C7   1.401   1_554  A
C5           C19   1.389       .  A
C5            C8   1.397   1_554  A
C6            C9   1.371       .  A
C7           C13   1.374       .  A
C8           C16   1.372       .  A
C9           N10   1.343       .  A
C9           H22   1.082       .  S
N10          C11   1.363   1_556  A
N10         C134   1.426       .  S
C11          H12   1.080       .  S
C13          N14   1.346       .  A
C13          H23   1.081       .  S
N14          C15   1.365   1_556  A
N14          C98   1.428       .  S
C15          H21   1.082       .  S
C16          N17   1.342       .  A
C16          H18   1.082       .  S
N17          C19   1.363   1_556  A
N17         C109   1.426       .  S
C19          H20   1.081       .  S
C24          C26   1.559       .  S
C24          C28   1.549       .  S
C24          C27   1.566       .  S
C24         C261   1.557       .  S
C25          C29   1.514       .  S
C25          C31   1.524       .  S
C25          C30   1.529       .  S
C25         C248   1.512       .  S
C26          C34   1.388       .  A
C26          C29   1.393       .  A
C27          C38   1.388       .  A
C27          C30   1.404       .  A
C28          C42   1.381       .  A
C28          C31   1.396       .  A
C29          C32   1.371       .  A
C30          C36   1.375       .  A
C31          C39   1.373       .  A
C32          N33   1.344       .  A
C32          H45   1.083       .  S
N33          C34   1.364       .  A
N33         C182   1.425       .  S
C34          H35   1.082       .  S
C36          N37   1.346       .  A
C36          H46   1.082       .  S
N37          C38   1.364       .  A
N37         C146   1.430       .  S
C38          H44   1.081       .  S
C39          N40   1.346       .  A
C39          H41   1.081       .  S
N40          C42   1.362       .  A
N40         C157   1.424       .  S
C42          H43   1.083       .  S
C47          C49   1.513       .  S
C47          C51   1.521       .  S
C47          C50   1.527       .  S
C47         C213   1.512       .  S
C48          C52   1.567       .  S
C48          C54   1.554       .  S
C48          C53   1.563       .  S
C48         C200   1.561       .  S
C49          C57   1.368       .  A
C49          C52   1.398   1_554  A
C50          C61   1.376       .  A
C50          C53   1.400   1_554  A
C51          C65   1.373       .  A
C51          C54   1.396   1_554  A
C52          C55   1.394       .  A
C53          C59   1.386       .  A
C54          C62   1.383       .  A
C55          N56   1.365   1_556  A
C55          H68   1.079       .  S
N56          C57   1.341       .  A
N56         C102   1.426       .  S
C57          H58   1.083       .  S
C59          N60   1.364   1_556  A
C59          H69   1.082       .  S
N60          C61   1.346       .  A
N60         C110   1.430       .  S
C61          H67   1.082       .  S
C62          N63   1.363   1_556  A
C62          H64   1.083       .  S
N63          C65   1.345       .  A
N63         C136   1.424       .  S
C65          H66   1.081       .  S
C70          C72   1.514       .  S
C70          C74   1.520       .  S
C70          C73   1.526       .  S
C70         C224   1.512       .  S
C71          C75   1.558       .  S
C71          C77   1.570       .  S
C71          C76   1.559       .  S
C71         C189   1.562       .  S
C72          C80   1.372       .  A
C72          C75   1.391       .  A
C73          C84   1.376       .  A
C73          C76   1.401       .  A
C74          C88   1.370       .  A
C74          C77   1.402       .  A
C75          C78   1.389       .  A
C76          C82   1.384       .  A
C77          C85   1.393       .  A
C78          N79   1.364       .  A
C78          H91   1.082       .  S
N79          C80   1.344       .  A
N79         C150   1.427       .  S
C80          H81   1.083       .  S
C82          N83   1.364       .  A
C82          H92   1.082       .  S
N83          C84   1.346       .  A
N83         C158   1.429       .  S
C84          H90   1.081       .  S
C85          N86   1.364       .  A
C85          H87   1.080       .  S
N86          C88   1.340       .  A
N86         C184   1.426       .  S
C88          H89   1.083       .  S
O93         Mg95   2.155       .  S
O93        Mg385   2.174   1_554  S
O93         C412   1.231       .  S
C94         H133   1.081       .  S
C94         O107   1.231       .  S
C94         O131   1.266       .  A
Mg95        O692   2.174   1_554  S
Mg95        O139   2.278   1_554  S
Mg95        O703   2.265       .  S
Mg95        O674   2.295       .  S
O96        Mg121   2.164       .  S
O96        Mg706   2.182   1_554  S
O96         C685   1.232       .  S
O97         C128   1.265       .  A
O97        Mg121   2.291       .  S
C98         O100   1.270       .  A
C98         O112   1.270       .  A
O99         C127   1.267       .  A
O99        Mg385   2.296       .  S
O100       Mg132   2.264       .  S
Mg101       O107   2.152       .  S
Mg101       O377   2.174   1_556  S
Mg101       O103   2.279   1_556  S
Mg101       O383   2.296       .  S
Mg101       O399   2.267       .  S
C102        O140   1.270       .  A
C102        O108   1.271       .  A
O103        C110   1.271       .  A
H104        C685   1.081       .  S
C105        H414   1.081   1_545  S
C105        O403   1.231   1_545  S
C105        O120   1.266       .  A
O106        C129   1.267       .  A
O106       Mg663   2.295   1_455  S
O107       Mg121   2.184   1_556  S
O108       Mg138   2.277   1_454  S
C109        O122   1.271       .  A
C109        O114   1.271   1_556  A
C110        O137   1.273       .  A
Mg111       O118   2.152       .  S
Mg111       O403   2.181   1_544  S
Mg111       O112   2.278   1_554  S
Mg111       O397   2.297   1_545  S
Mg111       O424   2.262   1_545  S
O113        C117   1.267   1_455  A
O113       Mg395   2.297       .  S
O114       Mg121   2.277       .  S
O115        C134   1.272       .  A
O115       Mg385   2.267       .  S
O116        C136   1.268       .  A
O116       Mg132   2.266   1_554  S
C117        H672   1.081       .  S
C117        O664   1.232       .  S
O118       Mg132   2.181   1_554  S
O118        C129   1.233       .  S
O119       Mg138   2.162   1_455  S
O119       Mg395   2.181   1_556  S
O119        C389   1.231       .  S
O120       Mg132   2.296       .  S
Mg121       O137   2.281       .  S
O122       Mg706   2.265       .  S
H123        C412   1.081       .  S
O124       Mg132   2.157       .  S
O124       Mg663   2.174   1_456  S
O124        C695   1.232       .  S
H125        C695   1.081       .  S
H126        C129   1.081       .  S
C127        H693   1.081       .  S
C127        O692   1.232       .  S
C128        H407   1.081       .  S
C128        O377   1.231       .  S
H130        C389   1.081       .  S
O131       Mg706   2.292       .  S
C134        O139   1.271       .  A
O135        C136   1.271       .  A
O135       Mg663   2.265   1_455  S
Mg138       O664   2.182   1_556  S
Mg138       O690   2.265       .  S
Mg138       O699   2.292       .  S
O140       Mg395   2.262       .  S
O141       Mg143   2.160   1_545  S
O141       Mg717   2.180       .  S
O141        C744   1.231       .  S
C142        H181   1.081       .  S
C142        O155   1.232       .  S
C142        O179   1.266       .  A
Mg143       O456   2.182       .  S
Mg143       O187   2.279   1_565  S
Mg143       O467   2.272       .  S
Mg143       O438   2.294       .  S
O144       Mg169   2.161       .  S
O144       Mg470   2.182   1_545  S
O144        C449   1.233       .  S
O145        C176   1.265       .  A
O145       Mg169   2.295       .  S
C146        O148   1.273       .  A
C146        O160   1.272       .  A
O147        C175   1.266   1_545  A
O147       Mg717   2.296       .  S
O148       Mg180   2.276       .  S
Mg149       O155   2.147       .  S
Mg149       O709   2.180   1_455  S
Mg149       O151   2.273       .  S
Mg149       O715   2.296   1_455  S
Mg149       O731   2.258   1_455  S
C150        O188   1.272       .  A
C150        O156   1.270       .  A
O151        C158   1.270       .  A
H152        C449   1.081       .  S
C153        H746   1.081       .  S
C153        O735   1.231       .  S
C153        O168   1.265       .  A
O154        C177   1.266       .  A
O154       Mg427   2.294       .  S
O155       Mg169   2.188       .  S
O156       Mg186   2.277       .  S
C157        O170   1.270       .  A
C157        O162   1.269       .  A
C158        O185   1.273       .  A
Mg159       O166   2.156       .  S
Mg159       O735   2.166       .  S
Mg159       O160   2.284       .  S
Mg159       O729   2.300       .  S
Mg159       O756   2.274       .  S
O161        C165   1.268       .  A
O161       Mg727   2.300       .  S
O162       Mg169   2.272       .  S
O163        C182   1.270       .  A
O163       Mg717   2.258       .  S
O164        C184   1.270       .  A
O164       Mg180   2.271       .  S
C165        H436   1.081       .  S
C165        O428   1.233       .  S
O166       Mg180   2.188       .  S
O166        C177   1.232       .  S
O167       Mg186   2.156       .  S
O167       Mg727   2.166       .  S
O167        C721   1.231       .  S
O168       Mg180   2.291       .  S
Mg169       O185   2.277       .  S
O170       Mg470   2.258   1_545  S
H171        C744   1.081       .  S
O172       Mg180   2.163       .  S
O172       Mg427   2.182       .  S
O172        C459   1.231       .  S
H173        C459   1.081       .  S
H174        C177   1.081       .  S
C175        H457   1.081       .  S
C175        O456   1.231       .  S
C176        H739   1.081   1_455  S
C176        O709   1.231   1_455  S
H178        C721   1.081       .  S
O179       Mg470   2.289   1_545  S
C182        O187   1.271       .  A
O183        C184   1.272       .  A
O183       Mg427   2.272       .  S
Mg186       O428   2.182       .  S
Mg186       O454   2.258       .  S
Mg186       O463   2.289       .  S
O188       Mg727   2.274       .  S
C189        C190   1.412       .  A
C189        C194   1.415       .  A
C190        C191   1.411       .  A
C190        H203   1.081       .  S
C191        C192   1.410       .  A
C191        H204   1.083       .  S
C192        C193   1.413       .  A
C192        C195   1.525       .  S
C193        C194   1.417       .  A
C193        H205   1.080       .  S
C194        H206   1.076       .  S
C195        C196   1.365       .  D
C195        H207   1.084       .  S
C196        C197   1.524       .  S
C196        H208   1.083       .  S
C197        C198   1.410       .  A
C197        C202   1.413       .  A
C198        C199   1.410       .  A
C198        H209   1.083       .  S
C199        C200   1.411       .  A
C199        H210   1.082       .  S
C200        C201   1.416       .  A
C201        C202   1.417       .  A
C201        H211   1.075       .  S
C202        H212   1.080       .  S
C213        C214   1.408       .  A
C213        C218   1.406       .  A
C214        C215   1.389       .  A
C214        H227   1.080       .  S
C215        C216   1.396       .  A
C215        H228   1.084       .  S
C216        C217   1.403       .  A
C216        C219   1.466       .  S
C217        C218   1.388       .  A
C217        H229   1.082       .  S
C218        H230   1.080       .  S
C219        C220   1.339       .  D
C219        H231   1.086       .  S
C220        C221   1.464       .  S
C220        H232   1.086       .  S
C221        C222   1.394       .  A
C221        C226   1.403       .  A
C222        C223   1.388       .  A
C222        H233   1.084       .  S
C223        C224   1.410       .  A
C223        H234   1.081       .  S
C224        C225   1.404       .  A
C225        C226   1.389       .  A
C225        H235   1.077       .  S
C226        H236   1.082       .  S
C237        C238   1.409       .  A
C237        C242   1.406       .  A
C238        C239   1.387       .  A
C238        H251   1.081       .  S
C239        C240   1.394       .  A
C239        H252   1.084       .  S
C240        C241   1.403       .  A
C240        C243   1.464       .  S
C241        C242   1.391       .  A
C241        H253   1.082       .  S
C242        H254   1.078       .  S
C243        C244   1.338       .  D
C243        H255   1.086       .  S
C244        C245   1.466       .  S
C244        H256   1.086       .  S
C245        C246   1.396       .  A
C245        C250   1.403       .  A
C246        C247   1.390       .  A
C246        H257   1.084       .  S
C247        C248   1.408       .  A
C247        H258   1.080       .  S
C248        C249   1.406       .  A
C249        C250   1.389       .  A
C249        H259   1.080       .  S
C250        H260   1.082       .  S
C261        C262   1.412       .  A
C261        C266   1.414       .  A
C262        C263   1.409       .  A
C262        H275   1.080       .  S
C263        C264   1.409       .  A
C263        H276   1.083       .  S
C264        C265   1.413       .  A
C264        C267   1.523       .  S
C265        C266   1.416       .  A
C265        H277   1.080       .  S
C266        H278   1.079       .  S
C267        C268   1.364       .  D
C267        H279   1.083       .  S
C268        C269   1.523       .  S
C268        H280   1.083       .  S
C269        C270   1.409       .  A
C269        C274   1.413       .  A
C270        C271   1.410       .  A
C270        H281   1.083       .  S
C271        C272   1.411       .  A
C271        H282   1.081       .  S
C272        C273   1.415       .  A
C273        C274   1.416       .  A
C273        H283   1.077       .  S
C274        H284   1.080       .  S
C285        C287   1.562       .  S
C285        C289   1.563       .  S
C285        C288   1.558       .  S
C285        C556   1.561       .  S
C286        C290   1.515       .  S
C286        C292   1.522       .  S
C286        C291   1.525       .  S
C286        C521   1.513       .  S
C287        C295   1.390       .  A
C287        C290   1.396   1_554  A
C288        C299   1.384       .  A
C288        C291   1.401   1_554  A
C289        C303   1.389       .  A
C289        C292   1.397   1_554  A
C290        C293   1.371       .  A
C291        C297   1.374       .  A
C292        C300   1.372       .  A
C293        N294   1.343       .  A
C293        H306   1.082       .  S
N294        C295   1.363   1_556  A
N294        C418   1.426       .  S
C295        H296   1.080       .  S
C297        N298   1.346       .  A
C297        H307   1.081       .  S
N298        C299   1.365   1_556  A
N298        C382   1.428       .  S
C299        H305   1.082       .  S
C300        N301   1.342       .  A
C300        H302   1.082       .  S
N301        C303   1.363   1_556  A
N301        C393   1.426       .  S
C303        H304   1.081       .  S
C308        C310   1.559       .  S
C308        C312   1.549       .  S
C308        C311   1.566       .  S
C308        C545   1.557       .  S
C309        C313   1.514       .  S
C309        C315   1.524       .  S
C309        C314   1.529       .  S
C309        C532   1.512       .  S
C310        C318   1.388       .  A
C310        C313   1.393       .  A
C311        C322   1.388       .  A
C311        C314   1.404       .  A
C312        C326   1.381       .  A
C312        C315   1.396       .  A
C313        C316   1.371       .  A
C314        C320   1.375       .  A
C315        C323   1.373       .  A
C316        N317   1.344       .  A
C316        H329   1.083       .  S
N317        C318   1.364       .  A
N317        C466   1.425       .  S
C318        H319   1.082       .  S
C320        N321   1.346       .  A
C320        H330   1.082       .  S
N321        C322   1.364       .  A
N321        C430   1.430       .  S
C322        H328   1.081       .  S
C323        N324   1.346       .  A
C323        H325   1.081       .  S
N324        C326   1.362       .  A
N324        C441   1.424       .  S
C326        H327   1.083       .  S
C331        C333   1.513       .  S
C331        C335   1.521       .  S
C331        C334   1.527       .  S
C331        C497   1.512       .  S
C332        C336   1.567       .  S
C332        C338   1.554       .  S
C332        C337   1.563       .  S
C332        C484   1.561       .  S
C333        C341   1.368       .  A
C333        C336   1.398   1_554  A
C334        C345   1.376       .  A
C334        C337   1.400   1_554  A
C335        C349   1.373       .  A
C335        C338   1.396   1_554  A
C336        C339   1.394       .  A
C337        C343   1.386       .  A
C338        C346   1.383       .  A
C339        N340   1.365   1_556  A
C339        H352   1.079       .  S
N340        C341   1.341       .  A
N340        C386   1.426       .  S
C341        H342   1.083       .  S
C343        N344   1.364   1_556  A
C343        H353   1.082       .  S
N344        C345   1.346       .  A
N344        C394   1.430       .  S
C345        H351   1.082       .  S
C346        N347   1.363   1_556  A
C346        H348   1.083       .  S
N347        C349   1.345       .  A
N347        C420   1.424       .  S
C349        H350   1.081       .  S
C354        C356   1.514       .  S
C354        C358   1.520       .  S
C354        C357   1.526       .  S
C354        C508   1.512       .  S
C355        C359   1.558       .  S
C355        C361   1.570       .  S
C355        C360   1.559       .  S
C355        C473   1.562       .  S
C356        C364   1.372       .  A
C356        C359   1.391       .  A
C357        C368   1.376       .  A
C357        C360   1.401       .  A
C358        C372   1.370       .  A
C358        C361   1.402       .  A
C359        C362   1.389       .  A
C360        C366   1.384       .  A
C361        C369   1.393       .  A
C362        N363   1.364       .  A
C362        H375   1.082       .  S
N363        C364   1.344       .  A
N363        C434   1.427       .  S
C364        H365   1.083       .  S
C366        N367   1.364       .  A
C366        H376   1.082       .  S
N367        C368   1.346       .  A
N367        C442   1.429       .  S
C368        H374   1.081       .  S
C369        N370   1.364       .  A
C369        H371   1.080       .  S
N370        C372   1.340       .  A
N370        C468   1.426       .  S
C372        H373   1.083       .  S
O377       Mg379   2.155       .  S
C378        H417   1.081       .  S
C378        O391   1.231       .  S
C378        O415   1.266       .  A
Mg379       O976   2.174   1_554  S
Mg379       O423   2.278   1_554  S
Mg379       O987   2.265       .  S
Mg379       O958   2.295       .  S
O380       Mg990   2.182   1_554  S
O380       Mg405   2.164       .  S
O380        C969   1.232       .  S
O381        C412   1.265   1_565  A
O381       Mg405   2.291       .  S
C382        O384   1.270       .  A
C382        O396   1.270       .  A
O383        C411   1.267       .  A
O384       Mg416   2.264       .  S
Mg385       O391   2.152   1_545  S
Mg385       O387   2.279   1_546  S
C386        O424   1.270       .  A
C386        O392   1.271       .  A
O387        C394   1.271       .  A
H388        C969   1.081       .  S
C389        O404   1.266       .  A
O390        C413   1.267       .  A
O390       Mg947   2.295   1_455  S
O391       Mg405   2.184   1_556  S
O392       Mg422   2.277   1_454  S
C393        O406   1.271       .  A
C393        O398   1.271   1_556  A
C394        O421   1.273       .  A
Mg395       O402   2.152       .  S
Mg395       O396   2.278   1_554  S
O397        C401   1.267   1_455  A
O398       Mg405   2.277       .  S
O399        C418   1.272       .  A
O400        C420   1.268       .  A
O400       Mg416   2.266   1_554  S
C401        H956   1.081       .  S
C401        O948   1.232       .  S
O402       Mg416   2.181   1_554  S
O402        C413   1.233       .  S
O403       Mg422   2.162   1_455  S
O404       Mg416   2.296       .  S
Mg405       O421   2.281       .  S
O406       Mg990   2.265       .  S
O408       Mg947   2.174   1_456  S
O408       Mg416   2.157       .  S
O408        C979   1.232       .  S
H409        C979   1.081       .  S
H410        C413   1.081       .  S
C411        H977   1.081       .  S
C411        O976   1.232       .  S
O415       Mg990   2.292       .  S
C418        O423   1.271       .  A
O419        C420   1.271       .  A
O419       Mg947   2.265   1_455  S
Mg422       O948   2.182   1_556  S
Mg422       O974   2.265       .  S
Mg422       O983   2.292       .  S
O425       Mg427   2.160       .  S
O425      Mg1001   2.180       .  S
O425       C1028   1.231       .  S
C426        H465   1.081       .  S
C426        O439   1.232       .  S
C426        O463   1.266       .  A
Mg427       O471   2.279       .  S
O428       Mg453   2.161       .  S
O429        C460   1.265       .  A
O429       Mg453   2.295       .  S
C430        O432   1.273       .  A
C430        O444   1.272       .  A
O431        C459   1.266       .  A
O431      Mg1001   2.296       .  S
O432       Mg464   2.276       .  S
Mg433       O993   2.180   1_455  S
Mg433       O439   2.147       .  S
Mg433       O999   2.296   1_455  S
Mg433      O1015   2.258   1_455  S
Mg433       O435   2.273       .  S
C434        O472   1.272       .  A
C434        O440   1.270       .  A
O435        C442   1.270       .  A
C437       H1030   1.081       .  S
C437       O1019   1.231       .  S
C437        O452   1.265       .  A
O438        C461   1.266       .  A
O439       Mg453   2.188       .  S
O440       Mg470   2.277       .  S
C441        O454   1.270       .  A
C441        O446   1.269       .  A
C442        O469   1.273       .  A
Mg443       O450   2.156       .  S
Mg443      O1019   2.166       .  S
Mg443       O444   2.284       .  S
Mg443      O1013   2.300       .  S
Mg443      O1040   2.274       .  S
O445        C449   1.268   1_565  A
O445      Mg1011   2.300       .  S
O446       Mg453   2.272       .  S
O447        C466   1.270       .  A
O447      Mg1001   2.258       .  S
O448        C468   1.270       .  A
O448       Mg464   2.271       .  S
O450       Mg464   2.188       .  S
O450        C461   1.232       .  S
O451      Mg1011   2.166       .  S
O451       Mg470   2.156       .  S
O451       C1005   1.231       .  S
O452       Mg464   2.291       .  S
Mg453       O469   2.277       .  S
H455       C1028   1.081       .  S
O456       Mg464   2.163       .  S
H458        C461   1.081       .  S
C460       H1023   1.081   1_455  S
C460        O993   1.231   1_455  S
H462       C1005   1.081       .  S
C466        O471   1.271       .  A
O467        C468   1.272       .  A
O472      Mg1011   2.274       .  S
C473        C474   1.412       .  A
C473        C478   1.415       .  A
C474        C475   1.411       .  A
C474        H487   1.081       .  S
C475        C476   1.410       .  A
C475        H488   1.083       .  S
C476        C477   1.413       .  A
C476        C479   1.525       .  S
C477        C478   1.417       .  A
C477        H489   1.080       .  S
C478        H490   1.076       .  S
C479        C480   1.365       .  D
C479        H491   1.084       .  S
C480        C481   1.524       .  S
C480        H492   1.083       .  S
C481        C482   1.410       .  A
C481        C486   1.413       .  A
C482        C483   1.410       .  A
C482        H493   1.083       .  S
C483        C484   1.411       .  A
C483        H494   1.082       .  S
C484        C485   1.416       .  A
C485        C486   1.417       .  A
C485        H495   1.075       .  S
C486        H496   1.080       .  S
C497        C498   1.408       .  A
C497        C502   1.406       .  A
C498        C499   1.389       .  A
C498        H511   1.080       .  S
C499        C500   1.396       .  A
C499        H512   1.084       .  S
C500        C501   1.403       .  A
C500        C503   1.466       .  S
C501        C502   1.388       .  A
C501        H513   1.082       .  S
C502        H514   1.080       .  S
C503        C504   1.339       .  D
C503        H515   1.086       .  S
C504        C505   1.464       .  S
C504        H516   1.086       .  S
C505        C506   1.394       .  A
C505        C510   1.403       .  A
C506        C507   1.388       .  A
C506        H517   1.084       .  S
C507        C508   1.410       .  A
C507        H518   1.081       .  S
C508        C509   1.404       .  A
C509        C510   1.389       .  A
C509        H519   1.077       .  S
C510        H520   1.082       .  S
C521        C522   1.409       .  A
C521        C526   1.406       .  A
C522        C523   1.387       .  A
C522        H535   1.081       .  S
C523        C524   1.394       .  A
C523        H536   1.084       .  S
C524        C525   1.403       .  A
C524        C527   1.464       .  S
C525        C526   1.391       .  A
C525        H537   1.082       .  S
C526        H538   1.078       .  S
C527        C528   1.338       .  D
C527        H539   1.086       .  S
C528        C529   1.466       .  S
C528        H540   1.086       .  S
C529        C530   1.396       .  A
C529        C534   1.403       .  A
C530        C531   1.390       .  A
C530        H541   1.084       .  S
C531        C532   1.408       .  A
C531        H542   1.080       .  S
C532        C533   1.406       .  A
C533        C534   1.389       .  A
C533        H543   1.080       .  S
C534        H544   1.082       .  S
C545        C546   1.412       .  A
C545        C550   1.414       .  A
C546        C547   1.409       .  A
C546        H559   1.080       .  S
C547        C548   1.409       .  A
C547        H560   1.083       .  S
C548        C549   1.413       .  A
C548        C551   1.523       .  S
C549        C550   1.416       .  A
C549        H561   1.080       .  S
C550        H562   1.079       .  S
C551        C552   1.364       .  D
C551        H563   1.083       .  S
C552        C553   1.523       .  S
C552        H564   1.083       .  S
C553        C554   1.409       .  A
C553        C558   1.413       .  A
C554        C555   1.410       .  A
C554        H565   1.083       .  S
C555        C556   1.411       .  A
C555        H566   1.081       .  S
C556        C557   1.415       .  A
C557        C558   1.416       .  A
C557        H567   1.077       .  S
C558        H568   1.080       .  S
C569        C571   1.562       .  S
C569        C573   1.563       .  S
C569        C572   1.558       .  S
C569        C840   1.561       .  S
C570        C574   1.515       .  S
C570        C576   1.522       .  S
C570        C575   1.525       .  S
C570        C805   1.513       .  S
C571        C579   1.390       .  A
C571        C574   1.396   1_554  A
C572        C583   1.384       .  A
C572        C575   1.401   1_554  A
C573        C587   1.389       .  A
C573        C576   1.397   1_554  A
C574        C577   1.371       .  A
C575        C581   1.374       .  A
C576        C584   1.372       .  A
C577        N578   1.343       .  A
C577        H590   1.082       .  S
N578        C579   1.363   1_556  A
N578        C702   1.426       .  S
C579        H580   1.080       .  S
C581        N582   1.346       .  A
C581        H591   1.081       .  S
N582        C583   1.365   1_556  A
N582        C666   1.428       .  S
C583        H589   1.082       .  S
C584        N585   1.342       .  A
C584        H586   1.082       .  S
N585        C587   1.363   1_556  A
N585        C677   1.426       .  S
C587        H588   1.081       .  S
C592        C594   1.559       .  S
C592        C596   1.549       .  S
C592        C595   1.566       .  S
C592        C829   1.557       .  S
C593        C597   1.514       .  S
C593        C599   1.524       .  S
C593        C598   1.529       .  S
C593        C816   1.512       .  S
C594        C602   1.388       .  A
C594        C597   1.393       .  A
C595        C606   1.388       .  A
C595        C598   1.404       .  A
C596        C610   1.381       .  A
C596        C599   1.396       .  A
C597        C600   1.371       .  A
C598        C604   1.375       .  A
C599        C607   1.373       .  A
C600        N601   1.344       .  A
C600        H613   1.083       .  S
N601        C602   1.364       .  A
N601        C750   1.425       .  S
C602        H603   1.082       .  S
C604        N605   1.346       .  A
C604        H614   1.082       .  S
N605        C606   1.364       .  A
N605        C714   1.430       .  S
C606        H612   1.081       .  S
C607        N608   1.346       .  A
C607        H609   1.081       .  S
N608        C610   1.362       .  A
N608        C725   1.424       .  S
C610        H611   1.083       .  S
C615        C617   1.513       .  S
C615        C619   1.521       .  S
C615        C618   1.527       .  S
C615        C781   1.512       .  S
C616        C620   1.567       .  S
C616        C622   1.554       .  S
C616        C621   1.563       .  S
C616        C768   1.561       .  S
C617        C625   1.368       .  A
C617        C620   1.398   1_554  A
C618        C629   1.376       .  A
C618        C621   1.400   1_554  A
C619        C633   1.373       .  A
C619        C622   1.396   1_554  A
C620        C623   1.394       .  A
C621        C627   1.386       .  A
C622        C630   1.383       .  A
C623        N624   1.365   1_556  A
C623        H636   1.079       .  S
N624        C625   1.341       .  A
N624        C670   1.426       .  S
C625        H626   1.083       .  S
C627        N628   1.364   1_556  A
C627        H637   1.082       .  S
N628        C629   1.346       .  A
N628        C678   1.430       .  S
C629        H635   1.082       .  S
C630        N631   1.363   1_556  A
C630        H632   1.083       .  S
N631        C633   1.345       .  A
N631        C704   1.424       .  S
C633        H634   1.081       .  S
C638        C640   1.514       .  S
C638        C642   1.520       .  S
C638        C641   1.526       .  S
C638        C792   1.512       .  S
C639        C643   1.558       .  S
C639        C645   1.570       .  S
C639        C644   1.559       .  S
C639        C757   1.562       .  S
C640        C648   1.372       .  A
C640        C643   1.391       .  A
C641        C652   1.376       .  A
C641        C644   1.401       .  A
C642        C656   1.370       .  A
C642        C645   1.402       .  A
C643        C646   1.389       .  A
C644        C650   1.384       .  A
C645        C653   1.393       .  A
C646        N647   1.364       .  A
C646        H659   1.082       .  S
N647        C648   1.344       .  A
N647        C718   1.427       .  S
C648        H649   1.083       .  S
C650        N651   1.364       .  A
C650        H660   1.082       .  S
N651        C652   1.346       .  A
N651        C726   1.429       .  S
C652        H658   1.081       .  S
C653        N654   1.364       .  A
C653        H655   1.080       .  S
N654        C656   1.340       .  A
N654        C752   1.426       .  S
C656        H657   1.083       .  S
O661       Mg663   2.155       .  S
O661       Mg953   2.174   1_554  S
O661        C980   1.231       .  S
C662        H701   1.081       .  S
C662        O675   1.231       .  S
C662        O699   1.266       .  A
Mg663       O707   2.278   1_554  S
O664       Mg689   2.164       .  S
O665        C696   1.265       .  A
O665       Mg689   2.291       .  S
C666        O668   1.270       .  A
C666        O680   1.270       .  A
O667        C695   1.267   1_655  A
O667       Mg953   2.296       .  S
O668       Mg700   2.264       .  S
Mg669       O945   2.174   1_556  S
Mg669       O675   2.152       .  S
Mg669       O951   2.296       .  S
Mg669       O967   2.267       .  S
Mg669       O671   2.279   1_556  S
C670        O708   1.270       .  A
C670        O676   1.271       .  A
O671        C678   1.271       .  A
C673        H982   1.081   1_545  S
C673        O971   1.231   1_545  S
C673        O688   1.266       .  A
O674        C697   1.267       .  A
O675       Mg689   2.184   1_556  S
O676       Mg706   2.277   1_554  S
C677        O690   1.271       .  A
C677        O682   1.271   1_556  A
C678        O705   1.273       .  A
Mg679       O686   2.152       .  S
Mg679       O971   2.181   1_544  S
Mg679       O680   2.278   1_554  S
Mg679       O965   2.297   1_545  S
Mg679       O992   2.262   1_545  S
O681        C685   1.267       .  A
O681       Mg963   2.297       .  S
O682       Mg689   2.277       .  S
O683        C702   1.272       .  A
O683       Mg953   2.267       .  S
O684        C704   1.268       .  A
O684       Mg700   2.266   1_554  S
O686       Mg700   2.181   1_554  S
O686        C697   1.233       .  S
O687       Mg963   2.181   1_556  S
O687       Mg706   2.162       .  S
O687        C957   1.231       .  S
O688       Mg700   2.296       .  S
Mg689       O705   2.281       .  S
H691        C980   1.081       .  S
O692       Mg700   2.157       .  S
H694        C697   1.081       .  S
C696        H975   1.081       .  S
C696        O945   1.231       .  S
H698        C957   1.081       .  S
C702        O707   1.271       .  A
O703        C704   1.271       .  A
O708       Mg963   2.262       .  S
O709       Mg711   2.160   1_545  S
C710        H749   1.081       .  S
C710        O723   1.232       .  S
C710        O747   1.266       .  A
Mg711      O1024   2.182       .  S
Mg711       O755   2.279   1_565  S
Mg711      O1035   2.272       .  S
Mg711      O1006   2.294       .  S
O712      Mg1038   2.182   1_545  S
O712       Mg737   2.161       .  S
O712       C1017   1.233       .  S
O713        C744   1.265       .  A
O713       Mg737   2.295       .  S
C714        O716   1.273       .  A
C714        O728   1.272       .  A
O715        C743   1.266   1_545  A
O716       Mg748   2.276       .  S
Mg717       O723   2.147       .  S
Mg717       O719   2.273       .  S
C718        O756   1.272       .  A
C718        O724   1.270       .  A
O719        C726   1.270       .  A
H720       C1017   1.081       .  S
C721        O736   1.265   1_455  A
O722        C745   1.266       .  A
O722       Mg995   2.294       .  S
O723       Mg737   2.188       .  S
O724       Mg754   2.277       .  S
C725        O738   1.270       .  A
C725        O730   1.269       .  A
C726        O753   1.273       .  A
Mg727       O734   2.156   1_455  S
Mg727       O728   2.284   1_455  S
O729        C733   1.268       .  A
O730       Mg737   2.272       .  S
O731        C750   1.270       .  A
O732        C752   1.270       .  A
O732       Mg748   2.271       .  S
C733       H1004   1.081       .  S
C733        O996   1.233       .  S
O734       Mg748   2.188       .  S
O734        C745   1.232       .  S
O735       Mg754   2.156       .  S
O736       Mg748   2.291       .  S
Mg737       O753   2.277       .  S
O738      Mg1038   2.258   1_545  S
O740       Mg995   2.182       .  S
O740       Mg748   2.163       .  S
O740       C1027   1.231       .  S
H741       C1027   1.081       .  S
H742        C745   1.081       .  S
C743       H1025   1.081       .  S
C743       O1024   1.231       .  S
O747      Mg1038   2.289   1_545  S
C750        O755   1.271       .  A
O751        C752   1.272       .  A
O751       Mg995   2.272       .  S
Mg754       O996   2.182       .  S
Mg754      O1022   2.258       .  S
Mg754      O1031   2.289       .  S
C757        C758   1.412       .  A
C757        C762   1.415       .  A
C758        C759   1.411       .  A
C758        H771   1.081       .  S
C759        C760   1.410       .  A
C759        H772   1.083       .  S
C760        C761   1.413       .  A
C760        C763   1.525       .  S
C761        C762   1.417       .  A
C761        H773   1.080       .  S
C762        H774   1.076       .  S
C763        C764   1.365       .  D
C763        H775   1.084       .  S
C764        C765   1.524       .  S
C764        H776   1.083       .  S
C765        C766   1.410       .  A
C765        C770   1.413       .  A
C766        C767   1.410       .  A
C766        H777   1.083       .  S
C767        C768   1.411       .  A
C767        H778   1.082       .  S
C768        C769   1.416       .  A
C769        C770   1.417       .  A
C769        H779   1.075       .  S
C770        H780   1.080       .  S
C781        C782   1.408       .  A
C781        C786   1.406       .  A
C782        C783   1.389       .  A
C782        H795   1.080       .  S
C783        C784   1.396       .  A
C783        H796   1.084       .  S
C784        C785   1.403       .  A
C784        C787   1.466       .  S
C785        C786   1.388       .  A
C785        H797   1.082       .  S
C786        H798   1.080       .  S
C787        C788   1.339       .  D
C787        H799   1.086       .  S
C788        C789   1.464       .  S
C788        H800   1.086       .  S
C789        C790   1.394       .  A
C789        C794   1.403       .  A
C790        C791   1.388       .  A
C790        H801   1.084       .  S
C791        C792   1.410       .  A
C791        H802   1.081       .  S
C792        C793   1.404       .  A
C793        C794   1.389       .  A
C793        H803   1.077       .  S
C794        H804   1.082       .  S
C805        C806   1.409       .  A
C805        C810   1.406       .  A
C806        C807   1.387       .  A
C806        H819   1.081       .  S
C807        C808   1.394       .  A
C807        H820   1.084       .  S
C808        C809   1.403       .  A
C808        C811   1.464       .  S
C809        C810   1.391       .  A
C809        H821   1.082       .  S
C810        H822   1.078       .  S
C811        C812   1.338       .  D
C811        H823   1.086       .  S
C812        C813   1.466       .  S
C812        H824   1.086       .  S
C813        C814   1.396       .  A
C813        C818   1.403       .  A
C814        C815   1.390       .  A
C814        H825   1.084       .  S
C815        C816   1.408       .  A
C815        H826   1.080       .  S
C816        C817   1.406       .  A
C817        C818   1.389       .  A
C817        H827   1.080       .  S
C818        H828   1.082       .  S
C829        C830   1.412       .  A
C829        C834   1.414       .  A
C830        C831   1.409       .  A
C830        H843   1.080       .  S
C831        C832   1.409       .  A
C831        H844   1.083       .  S
C832        C833   1.413       .  A
C832        C835   1.523       .  S
C833        C834   1.416       .  A
C833        H845   1.080       .  S
C834        H846   1.079       .  S
C835        C836   1.364       .  D
C835        H847   1.083       .  S
C836        C837   1.523       .  S
C836        H848   1.083       .  S
C837        C838   1.409       .  A
C837        C842   1.413       .  A
C838        C839   1.410       .  A
C838        H849   1.083       .  S
C839        C840   1.411       .  A
C839        H850   1.081       .  S
C840        C841   1.415       .  A
C841        C842   1.416       .  A
C841        H851   1.077       .  S
C842        H852   1.080       .  S
C853        C855   1.562       .  S
C853        C857   1.563       .  S
C853        C856   1.558       .  S
C853       C1124   1.561       .  S
C854        C858   1.515       .  S
C854        C860   1.522       .  S
C854        C859   1.525       .  S
C854       C1089   1.513       .  S
C855        C863   1.390       .  A
C855        C858   1.396   1_554  A
C856        C867   1.384       .  A
C856        C859   1.401   1_554  A
C857        C871   1.389       .  A
C857        C860   1.397   1_554  A
C858        C861   1.371       .  A
C859        C865   1.374       .  A
C860        C868   1.372       .  A
C861        N862   1.343       .  A
C861        H874   1.082       .  S
N862        C863   1.363   1_556  A
N862        C986   1.426       .  S
C863        H864   1.080       .  S
C865        N866   1.346       .  A
C865        H875   1.081       .  S
N866        C867   1.365   1_556  A
N866        C950   1.428       .  S
C867        H873   1.082       .  S
C868        N869   1.342       .  A
C868        H870   1.082       .  S
N869        C871   1.363   1_556  A
N869        C961   1.426       .  S
C871        H872   1.081       .  S
C876        C878   1.559       .  S
C876        C880   1.549       .  S
C876        C879   1.566       .  S
C876       C1113   1.557       .  S
C877        C881   1.514       .  S
C877        C883   1.524       .  S
C877        C882   1.529       .  S
C877       C1100   1.512       .  S
C878        C886   1.388       .  A
C878        C881   1.393       .  A
C879        C890   1.388       .  A
C879        C882   1.404       .  A
C880        C894   1.381       .  A
C880        C883   1.396       .  A
C881        C884   1.371       .  A
C882        C888   1.375       .  A
C883        C891   1.373       .  A
C884        N885   1.344       .  A
C884        H897   1.083       .  S
N885        C886   1.364       .  A
N885       C1034   1.425       .  S
C886        H887   1.082       .  S
C888        N889   1.346       .  A
C888        H898   1.082       .  S
N889        C890   1.364       .  A
N889        C998   1.430       .  S
C890        H896   1.081       .  S
C891        N892   1.346       .  A
C891        H893   1.081       .  S
N892        C894   1.362       .  A
N892       C1009   1.424       .  S
C894        H895   1.083       .  S
C899        C901   1.513       .  S
C899        C903   1.521       .  S
C899        C902   1.527       .  S
C899       C1065   1.512       .  S
C900        C904   1.567       .  S
C900        C906   1.554       .  S
C900        C905   1.563       .  S
C900       C1052   1.561       .  S
C901        C909   1.368       .  A
C901        C904   1.398   1_554  A
C902        C913   1.376       .  A
C902        C905   1.400   1_554  A
C903        C917   1.373       .  A
C903        C906   1.396   1_554  A
C904        C907   1.394       .  A
C905        C911   1.386       .  A
C906        C914   1.383       .  A
C907        N908   1.365   1_556  A
C907        H920   1.079       .  S
N908        C909   1.341       .  A
N908        C954   1.426       .  S
C909        H910   1.083       .  S
C911        N912   1.364   1_556  A
C911        H921   1.082       .  S
N912        C913   1.346       .  A
N912        C962   1.430       .  S
C913        H919   1.082       .  S
C914        N915   1.363   1_556  A
C914        H916   1.083       .  S
N915        C917   1.345       .  A
N915        C988   1.424       .  S
C917        H918   1.081       .  S
C922        C924   1.514       .  S
C922        C926   1.520       .  S
C922        C925   1.526       .  S
C922       C1076   1.512       .  S
C923        C927   1.558       .  S
C923        C929   1.570       .  S
C923        C928   1.559       .  S
C923       C1041   1.562       .  S
C924        C932   1.372       .  A
C924        C927   1.391       .  A
C925        C936   1.376       .  A
C925        C928   1.401       .  A
C926        C940   1.370       .  A
C926        C929   1.402       .  A
C927        C930   1.389       .  A
C928        C934   1.384       .  A
C929        C937   1.393       .  A
C930        N931   1.364       .  A
C930        H943   1.082       .  S
N931        C932   1.344       .  A
N931       C1002   1.427       .  S
C932        H933   1.083       .  S
C934        N935   1.364       .  A
C934        H944   1.082       .  S
N935        C936   1.346       .  A
N935       C1010   1.429       .  S
C936        H942   1.081       .  S
C937        N938   1.364       .  A
C937        H939   1.080       .  S
N938        C940   1.340       .  A
N938       C1036   1.426       .  S
C940        H941   1.083       .  S
O945       Mg947   2.155       .  S
C946        H985   1.081       .  S
C946        O959   1.231       .  S
C946        O983   1.266       .  A
Mg947       O991   2.278   1_554  S
O948       Mg973   2.164       .  S
O949        C980   1.265   1_565  A
O949       Mg973   2.291       .  S
C950        O952   1.270       .  A
C950        O964   1.270       .  A
O951        C979   1.267   1_655  A
O952       Mg984   2.264       .  S
Mg953       O959   2.152   1_545  S
Mg953       O955   2.279   1_546  S
C954        O992   1.270       .  A
C954        O960   1.271       .  A
O955        C962   1.271       .  A
C957        O972   1.266       .  A
O958        C981   1.267       .  A
O959       Mg973   2.184   1_556  S
O960       Mg990   2.277   1_554  S
C961        O974   1.271       .  A
C961        O966   1.271   1_556  A
C962        O989   1.273       .  A
Mg963       O970   2.152       .  S
Mg963       O964   2.278   1_554  S
O965        C969   1.267       .  A
O966       Mg973   2.277       .  S
O967        C986   1.272       .  A
O968        C988   1.268       .  A
O968       Mg984   2.266   1_554  S
O970       Mg984   2.181   1_554  S
O970        C981   1.233       .  S
O971       Mg990   2.162       .  S
O972       Mg984   2.296       .  S
Mg973       O989   2.281       .  S
O976       Mg984   2.157       .  S
H978        C981   1.081       .  S
C986        O991   1.271       .  A
O987        C988   1.271       .  A
O993       Mg995   2.160       .  S
C994       H1033   1.081       .  S
C994       O1007   1.232       .  S
C994       O1031   1.266       .  A
Mg995      O1039   2.279       .  S
O996      Mg1021   2.161       .  S
O997       C1028   1.265       .  A
O997      Mg1021   2.295       .  S
C998       O1000   1.273       .  A
C998       O1012   1.272       .  A
O999       C1027   1.266       .  A
O1000     Mg1032   2.276       .  S
Mg1001     O1007   2.147       .  S
Mg1001     O1003   2.273       .  S
C1002      O1040   1.272       .  A
C1002      O1008   1.270       .  A
O1003      C1010   1.270       .  A
C1005      O1020   1.265   1_455  A
O1006      C1029   1.266       .  A
O1007     Mg1021   2.188       .  S
O1008     Mg1038   2.277       .  S
C1009      O1022   1.270       .  A
C1009      O1014   1.269       .  A
C1010      O1037   1.273       .  A
Mg1011     O1018   2.156   1_455  S
Mg1011     O1012   2.284   1_455  S
O1013      C1017   1.268   1_565  A
O1014     Mg1021   2.272       .  S
O1015      C1034   1.270       .  A
O1016      C1036   1.270       .  A
O1016     Mg1032   2.271       .  S
O1018     Mg1032   2.188       .  S
O1018      C1029   1.232       .  S
O1019     Mg1038   2.156       .  S
O1020     Mg1032   2.291       .  S
Mg1021     O1037   2.277       .  S
O1024     Mg1032   2.163       .  S
H1026      C1029   1.081       .  S
C1034      O1039   1.271       .  A
O1035      C1036   1.272       .  A
C1041      C1042   1.412       .  A
C1041      C1046   1.415       .  A
C1042      C1043   1.411       .  A
C1042      H1055   1.081       .  S
C1043      C1044   1.410       .  A
C1043      H1056   1.083       .  S
C1044      C1045   1.413       .  A
C1044      C1047   1.525       .  S
C1045      C1046   1.417       .  A
C1045      H1057   1.080       .  S
C1046      H1058   1.076       .  S
C1047      C1048   1.365       .  D
C1047      H1059   1.084       .  S
C1048      C1049   1.524       .  S
C1048      H1060   1.083       .  S
C1049      C1050   1.410       .  A
C1049      C1054   1.413       .  A
C1050      C1051   1.410       .  A
C1050      H1061   1.083       .  S
C1051      C1052   1.411       .  A
C1051      H1062   1.082       .  S
C1052      C1053   1.416       .  A
C1053      C1054   1.417       .  A
C1053      H1063   1.075       .  S
C1054      H1064   1.080       .  S
C1065      C1066   1.408       .  A
C1065      C1070   1.406       .  A
C1066      C1067   1.389       .  A
C1066      H1079   1.080       .  S
C1067      C1068   1.396       .  A
C1067      H1080   1.084       .  S
C1068      C1069   1.403       .  A
C1068      C1071   1.466       .  S
C1069      C1070   1.388       .  A
C1069      H1081   1.082       .  S
C1070      H1082   1.080       .  S
C1071      C1072   1.339       .  D
C1071      H1083   1.086       .  S
C1072      C1073   1.464       .  S
C1072      H1084   1.086       .  S
C1073      C1074   1.394       .  A
C1073      C1078   1.403       .  A
C1074      C1075   1.388       .  A
C1074      H1085   1.084       .  S
C1075      C1076   1.410       .  A
C1075      H1086   1.081       .  S
C1076      C1077   1.404       .  A
C1077      C1078   1.389       .  A
C1077      H1087   1.077       .  S
C1078      H1088   1.082       .  S
C1089      C1090   1.409       .  A
C1089      C1094   1.406       .  A
C1090      C1091   1.387       .  A
C1090      H1103   1.081       .  S
C1091      C1092   1.394       .  A
C1091      H1104   1.084       .  S
C1092      C1093   1.403       .  A
C1092      C1095   1.464       .  S
C1093      C1094   1.391       .  A
C1093      H1105   1.082       .  S
C1094      H1106   1.078       .  S
C1095      C1096   1.338       .  D
C1095      H1107   1.086       .  S
C1096      C1097   1.466       .  S
C1096      H1108   1.086       .  S
C1097      C1098   1.396       .  A
C1097      C1102   1.403       .  A
C1098      C1099   1.390       .  A
C1098      H1109   1.084       .  S
C1099      C1100   1.408       .  A
C1099      H1110   1.080       .  S
C1100      C1101   1.406       .  A
C1101      C1102   1.389       .  A
C1101      H1111   1.080       .  S
C1102      H1112   1.082       .  S
C1113      C1114   1.412       .  A
C1113      C1118   1.414       .  A
C1114      C1115   1.409       .  A
C1114      H1127   1.080       .  S
C1115      C1116   1.409       .  A
C1115      H1128   1.083       .  S
C1116      C1117   1.413       .  A
C1116      C1119   1.523       .  S
C1117      C1118   1.416       .  A
C1117      H1129   1.080       .  S
C1118      H1130   1.079       .  S
C1119      C1120   1.364       .  D
C1119      H1131   1.083       .  S
C1120      C1121   1.523       .  S
C1120      H1132   1.083       .  S
C1121      C1122   1.409       .  A
C1121      C1126   1.413       .  A
C1122      C1123   1.410       .  A
C1122      H1133   1.083       .  S
C1123      C1124   1.411       .  A
C1123      H1134   1.081       .  S
C1124      C1125   1.415       .  A
C1125      C1126   1.416       .  A
C1125      H1135   1.077       .  S
C1126      H1136   1.080       .  S
