geometry optimzed in LAMMPS
_audit_creation_date              2020-11-30 
_audit_creation_method            'lammps2cif' 
_symmetry_space_group_name_H-M    'P1' 
_symmetry_Int_Tables_number       1 
_symmetry_cell_setting            triclinic 
loop_ 
_symmetry_equiv_pos_as_xyz 
  x,y,z 
_cell_length_a                    33.8539376884567 
_cell_length_b                    33.857442625316104 
_cell_length_c                    45.273958775409255 
_cell_angle_alpha                 89.16412018286931 
_cell_angle_beta                  90.29332268097646 
_cell_angle_gamma                 91.49996121556234 
loop_ 
_atom_site_label 
_atom_site_type_symbol 
_atom_site_fract_x 
_atom_site_fract_y 
_atom_site_fract_z 
_atom_site_charge 
C1          C  0.25907573  0.53008056  0.13647682     0.06280
C2          C  0.26365805  0.52774823  0.16728690    -0.09870
C3          C  0.26013441  0.49168015  0.18216736     0.03780
C4          C  0.25296477  0.45715549  0.16653730    -0.08400
C5          C  0.24971395  0.45858881  0.13569772     0.06270
C6          C  0.25288991  0.49511020  0.12045104    -0.07820
H7          H  0.26939128  0.55432007  0.17988807     0.11860
H8          H  0.24990810  0.42911650  0.17831872     0.09390
H9          H  0.24949593  0.49637121  0.09665157     0.09240
C10         C  0.26920315  0.54252039  0.31329062     0.06360
C11         C  0.26959547  0.53678729  0.28273397    -0.09870
C12         C  0.26456169  0.49907316  0.27131765     0.03780
C13         C  0.25971589  0.46665236  0.29018161    -0.08400
C14         C  0.25889850  0.47149386  0.32098787     0.06270
C15         C  0.26407761  0.50965956  0.33259297    -0.07820
H16         H  0.27333173  0.56187861  0.26773188     0.11860
H17         H  0.25742145  0.43749447  0.28065440     0.09390
H18         H  0.26440277  0.51361896  0.35628964     0.09240
C19         C  0.96432879  0.76309112  0.38542469     0.06280
C20         C  0.96465971  0.75689066  0.41622537    -0.09870
C21         C  0.00015553  0.75469314  0.43166820     0.03780
C22         C  0.03582480  0.75913181  0.41672064    -0.08400
C23         C  0.03651533  0.76547230  0.38594658     0.06270
C24         C  0.00051625  0.76854937  0.37037459    -0.07820
H25         H  0.93718939  0.75399432  0.42836488     0.11860
H26         H  0.06323178  0.75762884  0.42915046     0.09390
H27         H  0.00066883  0.77337681  0.34666728     0.09240
C28         C  0.03853938  0.74822221  0.06625931     0.06280
C29         C  0.03674828  0.74904783  0.03535804    -0.09870
C30         C  0.00157908  0.74013254  0.02069253     0.03780
C31         C  0.96755676  0.73098161  0.03678729    -0.08400
C32         C  0.96806003  0.73209258  0.06790968     0.06270
C33         C  0.00414481  0.73931856  0.08273851    -0.07820
H34         H  0.06297255  0.75671711  0.02259850     0.11860
H35         H  0.94023175  0.72456971  0.02499276     0.09390
H36         H  0.00494405  0.74043703  0.10663556     0.09240
Zn37       Zn  0.29199626  0.77597371  0.38990216     1.49720
Zn38       Zn  0.21750454  0.78876055  0.34538031     1.49360
Zn39       Zn  0.28329859  0.72346562  0.33289361     1.49110
Zn40       Zn  0.22483790  0.70931334  0.38615143     1.49480
O41         O  0.25405464  0.74980059  0.36339230    -1.80980
O42         O  0.28155984  0.83344941  0.39015955    -0.71610
O43         O  0.22171231  0.78806934  0.30034096    -0.71430
O44         O  0.34145952  0.73428350  0.33727901    -0.70950
O45         O  0.23126521  0.84502717  0.35962037    -0.71630
O46         O  0.34864323  0.77057184  0.37743195    -0.71220
O47         O  0.26674106  0.74254803  0.29247452    -0.71810
O48         O  0.23370421  0.65402210  0.37231240    -0.71200
O49         O  0.15996371  0.77475694  0.35670829    -0.71960
O50         O  0.27486246  0.66450435  0.33490895    -0.71350
O51         O  0.16736075  0.71937061  0.38310490    -0.71810
O52         O  0.23893173  0.71031039  0.42932289    -0.71720
O53         O  0.28698174  0.75613796  0.43188252    -0.71510
C54         C  0.25778211  0.85704762  0.37781782     0.80280
C55         C  0.24252096  0.76792555  0.28294995     0.80770
C56         C  0.36328958  0.75306581  0.35558773     0.79730
C57         C  0.25464201  0.64112222  0.35154022     0.80110
C58         C  0.14557332  0.74565296  0.37178583     0.81240
C59         C  0.26421502  0.73034035  0.44402385     0.80290
Zn60       Zn  0.21499705  0.76930751  0.08105865     1.49720
Zn61       Zn  0.27365063  0.79081686  0.13357026     1.49360
Zn62       Zn  0.20969470  0.72103483  0.14060142     1.49110
Zn63       Zn  0.28401371  0.71038952  0.09619668     1.49480
O64         O  0.24610033  0.74767951  0.11297411    -1.80980
O65         O  0.22202210  0.82733790  0.07838540    -0.71610
O66         O  0.25968322  0.79148500  0.17725883    -0.71430
O67         O  0.15194294  0.72649037  0.12967001    -0.70950
O68         O  0.26354991  0.84422281  0.11448450    -0.71630
O69         O  0.15769817  0.75814166  0.08667220    -0.71220
O70         O  0.21774346  0.74014321  0.18221865    -0.71810
O71         O  0.27009421  0.65405323  0.10963605    -0.71200
O72         O  0.33174231  0.78200327  0.13175631    -0.71960
O73         O  0.21997775  0.66357217  0.14025007    -0.71350
O74         O  0.34042282  0.72525860  0.10861221    -0.71810
O75         O  0.28247026  0.71141708  0.05139662    -0.71720
O76         O  0.23118237  0.74930111  0.04172118    -0.71510
C77         C  0.24210729  0.85319638  0.09229831     0.80280
C78         C  0.23800701  0.76852504  0.19320114     0.80770
C79         C  0.13649825  0.74172226  0.10669228     0.79730
C80         C  0.24353290  0.64088911  0.12737571     0.80110
C81         C  0.35410813  0.75543880  0.12221794     0.81240
C82         C  0.25903912  0.72786922  0.03323949     0.80290
C83         C  0.53594820  0.73897911  0.13483877     0.06280
C84         C  0.49937674  0.73417160  0.12005782    -0.09870
C85         C  0.46380252  0.73723093  0.13583042     0.03780
C86         C  0.46526842  0.74285022  0.16651124    -0.08400
C87         C  0.50127096  0.74666116  0.18118868     0.06270
C88         C  0.53639333  0.74451715  0.16559364    -0.07820
H89         H  0.49861240  0.72973616  0.09640921     0.11860
H90         H  0.43819591  0.74410330  0.17913412     0.09390
H91         H  0.56414069  0.74682556  0.17758351     0.09240
C92         C  0.46111969  0.74827962  0.31516412     0.06280
C93         C  0.46345471  0.74869989  0.28430549    -0.09870
C94         C  0.49876046  0.75874974  0.27026467     0.03780
C95         C  0.53233272  0.76781325  0.28688693    -0.08400
C96         C  0.53148786  0.76506691  0.31796261     0.06270
C97         C  0.49525367  0.75672863  0.33221677    -0.07820
H98         H  0.43754519  0.74125786  0.27109467     0.11860
H99         H  0.55970019  0.77523916  0.27550547     0.09390
H100        H  0.49414355  0.75452061  0.35609240     0.09240
Zn101      Zn  0.78976343  0.78419796  0.33483249     1.49720
Zn102      Zn  0.77155450  0.70684968  0.37721007     1.49360
Zn103      Zn  0.70834063  0.77671104  0.37384328     1.49110
Zn104      Zn  0.72275255  0.72164936  0.31899796     1.49480
O105        O  0.74845609  0.74785552  0.35160292    -1.80980
O106        O  0.84384939  0.77009165  0.35136454    -0.71610
O107        O  0.75114983  0.71060982  0.41914212    -0.71430
O108        O  0.72251064  0.83512699  0.37199188    -0.70950
O109        O  0.83015730  0.71641973  0.37894479    -0.71630
O110        O  0.77805981  0.84091881  0.34587935    -0.71220
O111        O  0.70820475  0.75935440  0.41721906    -0.71810
O112        O  0.66614603  0.73261955  0.31805474    -0.71200
O113        O  0.76122508  0.65050637  0.36267966    -0.71960
O114        O  0.65223591  0.76889946  0.35691859    -0.71350
O115        O  0.72549944  0.66367708  0.32271970    -0.71810
O116        O  0.74523287  0.73702805  0.27960182    -0.71720
O117        O  0.79272114  0.78136570  0.28959724    -0.71510
C118        C  0.85468621  0.74199248  0.36841325     0.80280
C119        C  0.72673411  0.73293007  0.43160950     0.80770
C120        C  0.75045398  0.85625526  0.36060627     0.79730
C121        C  0.64155844  0.75032902  0.33378792     0.80110
C122        C  0.74141310  0.63918449  0.34020995     0.81240
C123        C  0.77266491  0.76078288  0.27121923     0.80290
Zn124      Zn  0.72964496  0.78946710  0.12775075     1.49720
Zn125      Zn  0.77696244  0.77727349  0.06921025     1.49360
Zn126      Zn  0.79212013  0.71906610  0.12375641     1.49110
Zn127      Zn  0.70947621  0.71487007  0.08551724     1.49480
O128        O  0.75186413  0.74962608  0.10187598    -1.80980
O129        O  0.73970332  0.84594795  0.11348397    -0.71610
O130        O  0.83379517  0.76693881  0.06860764    -0.71430
O131        O  0.79372705  0.73536307  0.16716339    -0.70950
O132        O  0.77270442  0.83530171  0.07227868    -0.71630
O133        O  0.75059093  0.78382345  0.16937304    -0.71220
O134        O  0.84772117  0.72664398  0.10616653    -0.71810
O135        O  0.71767406  0.65885041  0.10038213    -0.71200
O136        O  0.75514154  0.76139034  0.02982651    -0.71960
O137        O  0.77646700  0.66068815  0.12294646    -0.71350
O138        O  0.70874215  0.71567784  0.04000452    -0.71810
O139        O  0.65545021  0.73122557  0.09999722    -0.71720
O140        O  0.67105836  0.78138790  0.12947953    -0.71510
C141        C  0.75746694  0.85863660  0.09039996     0.80280
C142        C  0.85832006  0.74727584  0.08363292     0.80770
C143        C  0.77535126  0.76113270  0.18166920     0.79730
C144        C  0.74557606  0.64177096  0.11413769     0.80110
C145        C  0.72880682  0.73657065  0.02148190     0.81240
C146        C  0.64560517  0.75808038  0.11779228     0.80290
C147        C  0.77225278  0.46538259  0.14352435     0.06280
C148        C  0.77368714  0.50087672  0.12688935    -0.09870
C149        C  0.76621914  0.53692268  0.14073618     0.03780
C150        C  0.75737248  0.53706327  0.17100274    -0.08400
C151        C  0.75676655  0.50182432  0.18743656     0.06270
C152        C  0.76426228  0.46623334  0.17375274    -0.07820
H153        H  0.78095296  0.50049790  0.10362059     0.11860
H154        H  0.75258381  0.56479426  0.18196585     0.09390
H155        H  0.76409473  0.43901251  0.18671614     0.09240
C156        C  0.76435431  0.45947852  0.32164592     0.06280
C157        C  0.75822602  0.46162653  0.29105298    -0.09870
C158        C  0.75420109  0.49812295  0.27694558     0.03780
C159        C  0.75552691  0.53258179  0.29332632    -0.08400
C160        C  0.76047583  0.53108731  0.32423154     0.06270
C161        C  0.76605490  0.49428908  0.33831391    -0.07820
H162        H  0.75751604  0.43485135  0.27815990     0.11860
H163        H  0.75344335  0.56073589  0.28177957     0.09390
H164        H  0.77076626  0.49265635  0.36198305     0.09240
C165        C  0.73243034  0.95662163  0.39546447     0.06280
C166        C  0.73209727  0.96069294  0.42621270    -0.09870
C167        C  0.73682589  0.99779004  0.43886525     0.03780
C168        C  0.74110464  0.03133095  0.42084291    -0.08400
C169        C  0.74153040  0.02821867  0.38980500     0.06270
C170        C  0.73706065  0.99050938  0.37713146    -0.07820
H171        H  0.72841729  0.93474992  0.44038117     0.11860
H172        H  0.74312763  0.05998329  0.43118083     0.09390
H173        H  0.73664109  0.98761502  0.35333249     0.09240
C174        C  0.73162004  0.96600798  0.07684738     0.06280
C175        C  0.73202063  0.96599311  0.04577366    -0.09870
C176        C  0.73052677  0.00112918  0.02963339     0.03780
C177        C  0.72769009  0.03682065  0.04429056    -0.08400
C178        C  0.72705004  0.03772758  0.07543166     0.06270
C179        C  0.72791023  0.00196719  0.09167053    -0.07820
H180        H  0.73364090  0.93845217  0.03396209     0.11860
H181        H  0.72625741  0.06396114  0.03137204     0.09390
H182        H  0.72769161  0.00229476  0.11559717     0.09240
Zn183      Zn  0.71045989  0.27575152  0.36866238     1.49720
Zn184      Zn  0.78817650  0.27833397  0.32769503     1.49360
Zn185      Zn  0.78358619  0.22229373  0.38367791     1.49110
Zn186      Zn  0.73036031  0.20048359  0.32842982     1.49480
O187        O  0.75279640  0.24423849  0.35181085    -1.80980
O188        O  0.71565471  0.33239403  0.35477535    -0.71610
O189        O  0.84635994  0.27239427  0.33850786    -0.71430
O190        O  0.76787846  0.24340898  0.42291244    -0.70950
O191        O  0.77411466  0.33574880  0.33239577    -0.71630
O192        O  0.71379663  0.27731069  0.41322274    -0.71220
O193        O  0.84084155  0.23325805  0.37800659    -0.71810
O194        O  0.74411967  0.14562856  0.34537688    -0.71200
O195        O  0.78124488  0.26432895  0.28459514    -0.71960
O196        O  0.77752283  0.16388894  0.38549173    -0.71350
O197        O  0.74639891  0.20743203  0.28526958    -0.71810
O198        O  0.67099958  0.20362520  0.32880970    -0.71720
O199        O  0.65630657  0.25474022  0.35674241    -0.71510
C200        C  0.74344765  0.35217845  0.34222814     0.80280
C201        C  0.86197388  0.25290129  0.35959426     0.80770
C202        C  0.73922080  0.26392884  0.43127667     0.79730
C203        C  0.76239642  0.13715272  0.36929192     0.80110
C204        C  0.76484189  0.23522757  0.27134537     0.81240
C205        C  0.64583919  0.22596593  0.34038849     0.80290
Zn206      Zn  0.71186526  0.29344112  0.08191391     1.49720
Zn207      Zn  0.78838311  0.28516770  0.12501039     1.49360
Zn208      Zn  0.71953538  0.21586893  0.12438759     1.49110
Zn209      Zn  0.77610088  0.22991956  0.06990511     1.49480
O210        O  0.74870926  0.25637089  0.10078186    -1.80980
O211        O  0.72494640  0.34938624  0.09395492    -0.71610
O212        O  0.78339072  0.26707836  0.16795385    -0.71430
O213        O  0.66096778  0.22658604  0.12215947    -0.70950
O214        O  0.77822109  0.34394946  0.12262217    -0.71630
O215        O  0.65563083  0.28043532  0.09377858    -0.71220
O216        O  0.73659452  0.21938533  0.16739844    -0.71810
O217        O  0.76706185  0.17238403  0.07183613    -0.71200
O218        O  0.84531916  0.27712798  0.11118076    -0.71960
O219        O  0.72767926  0.15932343  0.10993996    -0.71350
O220        O  0.83367058  0.23819677  0.07293590    -0.71810
O221        O  0.75971304  0.24766975  0.02967880    -0.71720
O222        O  0.71386404  0.29210678  0.03722254    -0.71510
C223        C  0.75217025  0.36487597  0.10982918     0.80280
C224        C  0.76172707  0.24105232  0.18117103     0.80770
C225        C  0.64008332  0.25295802  0.10966826     0.79730
C226        C  0.74792691  0.14799468  0.08809501     0.80110
C227        C  0.85745377  0.25703551  0.08957678     0.81240
C228        C  0.73482062  0.27208885  0.02001657     0.80290
C229        C  0.46924950  0.24398393  0.14307920     0.06280
C230        C  0.46790126  0.24502618  0.17411376    -0.09870
C231        C  0.50197091  0.23980112  0.19091479     0.03780
C232        C  0.53780890  0.23353132  0.17709267    -0.08400
C233        C  0.54029510  0.23393575  0.14626277     0.06270
C234        C  0.50599240  0.23981534  0.12905203    -0.07820
H235        H  0.44020310  0.24976209  0.18528822     0.11860
H236        H  0.56410662  0.22903177  0.19040299     0.09390
H237        H  0.50759650  0.23939265  0.10516763     0.09240
C238        C  0.46341956  0.24264599  0.32686089     0.06280
C239        C  0.49948214  0.24178648  0.34258902    -0.09870
C240        C  0.53553018  0.24040666  0.32717662     0.03780
C241        C  0.53506496  0.24072132  0.29612986    -0.08400
C242        C  0.49950761  0.24104249  0.28065046     0.06270
C243        C  0.46393838  0.24154262  0.29581626    -0.07820
H244        H  0.49950032  0.24224471  0.36651136     0.11860
H245        H  0.56250231  0.24115672  0.28385982     0.09390
H246        H  0.43655599  0.24075346  0.28328898     0.09240
C247        C  0.24860948  0.03984456  0.38966319     0.06280
C248        C  0.24526702  0.00362455  0.37472035    -0.09870
C249        C  0.24287107  0.96772287  0.39085130     0.03780
C250        C  0.24354222  0.96860692  0.42192140    -0.08400
C251        C  0.24778897  0.00423988  0.43675494     0.06270
C252        C  0.24989868  0.03978522  0.42073031    -0.07820
H253        H  0.24504504  0.00337395  0.35079174     0.11860
H254        H  0.24121744  0.94134386  0.43473292     0.09390
H255        H  0.25365826  0.06738878  0.43239449     0.09240
C256        C  0.26590483  0.03345031  0.07458973     0.06280
C257        C  0.26863331  0.99714398  0.08965452    -0.09870
C258        C  0.26548651  0.96172032  0.07400674     0.03780
C259        C  0.26198563  0.96296099  0.04298852    -0.08400
C260        C  0.26032833  0.99903876  0.02789433     0.06270
C261        C  0.26255873  0.03412211  0.04356294    -0.07820
H262        H  0.27105492  0.99641039  0.11353729     0.11860
H263        H  0.26049992  0.93587162  0.03051458     0.09390
H264        H  0.26145621  0.06199988  0.03153437     0.09240
C265        C  0.96113301  0.23913211  0.39738168     0.06280
C266        C  0.96329241  0.24514129  0.42787792    -0.09870
C267        C  0.99957368  0.25229666  0.44162303     0.03780
C268        C  0.03419082  0.25247814  0.42506234    -0.08400
C269        C  0.03276872  0.24650571  0.39429133     0.06270
C270        C  0.99590739  0.23969384  0.38046641    -0.07820
H271        H  0.93648219  0.24462591  0.44093057     0.11860
H272        H  0.06224636  0.25660275  0.43637512     0.09390
H273        H  0.99432012  0.23449613  0.35692615     0.09240
C274        C  0.96636583  0.28170738  0.07476507     0.06280
C275        C  0.96623263  0.27862890  0.04374980    -0.09870
C276        C  0.00148622  0.27683687  0.02820688     0.03780
C277        C  0.03732939  0.27899016  0.04334430    -0.08400
C278        C  0.03838653  0.28184974  0.07436802     0.06270
C279        C  0.00269025  0.28439490  0.08998321    -0.07820
H280        H  0.93854963  0.27713846  0.03161491     0.11860
H281        H  0.06451510  0.27782734  0.03087000     0.09390
H282        H  0.00312081  0.28624720  0.11385527     0.09240
Zn283      Zn  0.20349174  0.22242315  0.33941962     1.49720
Zn284      Zn  0.27055602  0.28501999  0.32270261     1.49360
Zn285      Zn  0.22599778  0.29592420  0.38224864     1.49110
Zn286      Zn  0.28679546  0.22528753  0.37603397     1.49480
O287        O  0.24651361  0.25650925  0.35531900    -1.80980
O288        O  0.20409249  0.22117236  0.29373434    -0.71610
O289        O  0.25465310  0.34126935  0.32233285    -0.71430
O290        O  0.16803802  0.28649118  0.38624091    -0.70950
O291        O  0.25362857  0.26349769  0.28352986    -0.71630
O292        O  0.14984453  0.24009657  0.35418238    -0.71220
O293        O  0.23162907  0.35238387  0.36721994    -0.71810
O294        O  0.28992952  0.24065188  0.41931678    -0.71200
O295        O  0.32930343  0.28229998  0.32502372    -0.71960
O296        O  0.24947222  0.29112039  0.42300394    -0.71350
O297        O  0.34175856  0.23547768  0.35858880    -0.71810
O298        O  0.27070335  0.16673776  0.37584712    -0.71720
O299        O  0.21011002  0.16712273  0.35612886    -0.71510
C300        C  0.22664463  0.23935186  0.27519768     0.80280
C301        C  0.24084031  0.36429431  0.34136523     0.80770
C302        C  0.14153744  0.26506967  0.37392874     0.79730
C303        C  0.27363697  0.26711091  0.43443746     0.80110
C304        C  0.35340619  0.26066101  0.33904143     0.81240
C305        C  0.23803685  0.14923826  0.36920932     0.80290
Zn306      Zn  0.21631227  0.28023085  0.12691133     1.49720
Zn307      Zn  0.29869924  0.27802193  0.08865983     1.49360
Zn308      Zn  0.27268990  0.20504608  0.13180813     1.49110
Zn309      Zn  0.22510247  0.22328301  0.07318661     1.49480
O310        O  0.25354050  0.24710328  0.10555721    -1.80980
O311        O  0.23492123  0.33729269  0.12248209    -0.71610
O312        O  0.35134149  0.25955956  0.10537882    -0.71430
O313        O  0.25020595  0.20964581  0.17317186    -0.70950
O314        O  0.29292640  0.33513874  0.09938773    -0.71630
O315        O  0.21539669  0.26461252  0.17077970    -0.71220
O316        O  0.33147473  0.21098819  0.13592393    -0.71810
O317        O  0.22872598  0.16554373  0.07439836    -0.71200
O318        O  0.30001360  0.27618346  0.04348569    -0.71960
O319        O  0.26161559  0.15014938  0.11536054    -0.71350
O320        O  0.24529928  0.24097360  0.03390957    -0.71810
O321        O  0.16841478  0.23442103  0.07406357    -0.71720
O322        O  0.15950092  0.27565271  0.11091351    -0.71510
C323        C  0.26590952  0.35432279  0.11181928     0.80280
C324        C  0.35874600  0.23276714  0.12456981     0.80770
C325        C  0.22941413  0.23560500  0.18540291     0.79730
C326        C  0.24377311  0.14023914  0.09164254     0.80110
C327        C  0.27545065  0.26080759  0.02529864     0.81240
C328        C  0.14609268  0.25534373  0.08941102     0.80290
C329        C  0.22210812  0.23347926  0.24376340    -0.10130
C330        C  0.22322211  0.23301265  0.21699322    -0.11680
C331        C  0.28074719  0.26857751  0.46575891    -0.10130
C332        C  0.28134560  0.26748457  0.49243339    -0.11680
C333        C  0.07697909  0.28011346  0.09005257    -0.13280
C334        C  0.10437354  0.25547845  0.08032802    -0.28460
H335        H  0.08308693  0.29926512  0.10864897     0.15740
H336        H  0.09641995  0.23517948  0.06274086     0.16310
C337        C  0.07003038  0.24574918  0.37714360    -0.13280
C338        C  0.10090495  0.26937042  0.38455151    -0.28460
H339        H  0.07261043  0.22465905  0.35944695     0.15740
H340        H  0.09698445  0.29169427  0.40122239     0.16310
C341        C  0.00147129  0.26531645  0.49900738    -0.10130
C342        C  0.00108937  0.25945178  0.47283271    -0.11680
C343        C  0.26514053  0.07080654  0.09106973    -0.13280
C344        C  0.24064941  0.09913290  0.08221069    -0.28460
H345        H  0.28541606  0.07552156  0.10943102     0.15740
H346        H  0.21978155  0.09306875  0.06439993     0.16310
C347        C  0.25319763  0.07797867  0.37332831    -0.13280
C348        C  0.23039543  0.10846509  0.37989156    -0.28460
H349        H  0.27621584  0.08145915  0.35680025     0.15740
H350        H  0.20566865  0.10371765  0.39485858     0.16310
C351        C  0.25608670  0.00202217  0.49490482    -0.10130
C352        C  0.25184159  0.00377492  0.46844955    -0.11680
C353        C  0.42477024  0.24352613  0.34221953    -0.13280
C354        C  0.39522611  0.26454461  0.33045421    -0.28460
H355        H  0.42003036  0.22546454  0.36196618     0.15740
H356        H  0.40154394  0.28427975  0.31181420     0.16310
C357        C  0.43179393  0.24659583  0.12599195    -0.13280
C358        C  0.39915119  0.22708113  0.13581016    -0.28460
H359        H  0.43078811  0.26502810  0.10618445     0.15740
H360        H  0.40177890  0.20682575  0.15454081     0.16310
C361        C  0.50021018  0.24047641  0.22249929    -0.10130
C362        C  0.49956560  0.24082864  0.24901546    -0.11680
C363        C  0.59693664  0.25304383  0.11465872    -0.13280
C364        C  0.57947731  0.22721580  0.13347774    -0.28460
H365        H  0.58013251  0.27717458  0.10532513     0.15740
H366        H  0.59709390  0.20464977  0.14412633     0.16310
C367        C  0.89941627  0.25517798  0.08177463    -0.13280
C368        C  0.92816853  0.28035696  0.09078388    -0.28460
H369        H  0.90622357  0.23387855  0.06489583     0.15740
H370        H  0.92309600  0.30099323  0.10842140     0.16310
C371        C  0.60397022  0.21917603  0.33252169    -0.13280
C372        C  0.57417645  0.24063429  0.34279141    -0.28460
H373        H  0.59785854  0.19777225  0.31530834     0.15740
H374        H  0.57894457  0.26056820  0.36112462     0.16310
C375        C  0.90535308  0.25396171  0.36384147    -0.13280
C376        C  0.92173124  0.23091842  0.38475033    -0.28460
H377        H  0.92320795  0.27612842  0.35207732     0.15740
H378        H  0.90316087  0.20991479  0.39709140     0.16310
C379        C  0.76596555  0.23468900  0.23951826    -0.10130
C380        C  0.76499688  0.23665741  0.21281806    -0.11680
C381        C  0.73564290  0.27155284  0.46217567    -0.10130
C382        C  0.73575777  0.27390806  0.48868969    -0.11680
C383        C  0.72727320  0.07639500  0.09053041    -0.13280
C384        C  0.74969210  0.10637528  0.07955586    -0.28460
H385        H  0.70884045  0.08037463  0.10976563     0.15740
H386        H  0.76938858  0.10061512  0.06129467     0.16310
C387        C  0.74426455  0.06484108  0.37114137    -0.13280
C388        C  0.76601020  0.09619260  0.38033347    -0.28460
H389        H  0.72623839  0.06697059  0.35129863     0.15740
H390        H  0.78507120  0.09262670  0.39953126     0.16310
C391        C  0.73704519  0.00138529  0.47049018    -0.10130
C392        C  0.73752181  0.00314135  0.49705232    -0.11680
C393        C  0.76966495  0.42023469  0.33520587    -0.13280
C394        C  0.73870894  0.39490822  0.33766585    -0.28460
H395        H  0.79954549  0.41031344  0.33899808     0.15740
H396        H  0.70895117  0.40558726  0.33448854     0.16310
C397        C  0.77978327  0.42663125  0.13065110    -0.13280
C398        C  0.75209154  0.40803986  0.11431240    -0.28460
H399        H  0.80406099  0.41006750  0.13994314     0.15740
H400        H  0.72670826  0.42423941  0.10643444     0.16310
C401        C  0.75176190  0.50210451  0.21884593    -0.10130
C402        C  0.75114307  0.50051476  0.24537806    -0.11680
C403        C  0.74040477  0.59948290  0.12192105    -0.13280
C404        C  0.77094690  0.57520631  0.12490085    -0.28460
H405        H  0.71076089  0.58852421  0.12716113     0.15740
H406        H  0.80046772  0.58505198  0.11837967     0.16310
C407        C  0.75996006  0.90085741  0.08276182    -0.13280
C408        C  0.73556519  0.92802865  0.09317087    -0.28460
H409        H  0.77970030  0.90896776  0.06466592     0.15740
H410        H  0.71643930  0.92132763  0.11186643     0.16310
C411        C  0.73647192  0.59735399  0.33252139    -0.13280
C412        C  0.76072395  0.56848297  0.34102120    -0.28460
H413        H  0.71415208  0.59101637  0.31576765     0.15740
H414        H  0.78247799  0.57330349  0.35839734     0.16310
C415        C  0.75179140  0.89952812  0.36547696    -0.13280
C416        C  0.72628645  0.91632407  0.38384691    -0.28460
H417        H  0.77607565  0.91712369  0.35612516     0.15740
H418        H  0.70367549  0.89793628  0.39461570     0.16310
C419        C  0.78023093  0.76408792  0.23994089    -0.10130
C420        C  0.78093638  0.76362558  0.21321771    -0.11680
C421        C  0.72147755  0.72930904  0.46318857    -0.10130
C422        C  0.72155943  0.72888416  0.48994682    -0.11680
C423        C  0.56946623  0.76681088  0.33457332    -0.13280
C424        C  0.60050368  0.74836025  0.32324649    -0.28460
H425        H  0.57187997  0.78244318  0.35530155     0.15740
H426        H  0.59591555  0.73078392  0.30353590     0.16310
C427        C  0.57404345  0.73810586  0.11876745    -0.13280
C428        C  0.60428555  0.76222357  0.12690977    -0.28460
H429        H  0.57774259  0.71667399  0.10144579     0.15740
H430        H  0.59909682  0.78493721  0.14306992     0.16310
C431        C  0.50194985  0.75272696  0.21243964    -0.10130
C432        C  0.50110620  0.75670960  0.23874727    -0.11680
C433        C  0.39645735  0.75998958  0.12919918    -0.13280
C434        C  0.42461046  0.73509066  0.12101889    -0.28460
H435        H  0.40449870  0.78410188  0.14385797     0.15740
H436        H  0.41834883  0.71216226  0.10500852     0.16310
C437        C  0.24075491  0.89382600  0.08085401    -0.13280
C438        C  0.26466438  0.92339002  0.09006006    -0.28460
H439        H  0.22051927  0.89896627  0.06255617     0.15740
H440        H  0.28362322  0.91947908  0.10925735     0.16310
C441        C  0.40631176  0.75630715  0.35045064    -0.13280
C442        C  0.42239853  0.73720712  0.32794827    -0.28460
H443        H  0.42384618  0.77759866  0.36298434     0.15740
H444        H  0.40389623  0.71699464  0.31513038     0.16310
C445        C  0.26144757  0.89864718  0.38682726    -0.13280
C446        C  0.24064109  0.92887735  0.37585401    -0.28460
H447        H  0.28217556  0.90442008  0.40477976     0.15740
H448        H  0.22176605  0.92499834  0.35659252     0.16310
C449        C  0.23863633  0.77322297  0.25144803    -0.10130
C450        C  0.23752372  0.77344750  0.22474818    -0.11680
C451        C  0.26587944  0.72491326  0.47545255    -0.10130
C452        C  0.26441974  0.72393247  0.50203201    -0.11680
C453        C  0.07694733  0.75896620  0.07965609    -0.13280
C454        C  0.09329884  0.73880936  0.10210789    -0.28460
H455        H  0.09525998  0.78000716  0.06710850     0.15740
H456        H  0.07599715  0.71705961  0.11471303     0.16310
C457        C  0.93003017  0.72975519  0.08413967    -0.13280
C458        C  0.89917076  0.74918878  0.07288846    -0.28460
H459        H  0.92754711  0.71318212  0.10478918     0.15740
H460        H  0.90377140  0.76769126  0.05329637     0.16310
C461        C  0.07534857  0.76773251  0.37076751    -0.13280
C462        C  0.10312299  0.74182001  0.37856933    -0.28460
H463        H  0.08170660  0.79143659  0.35495383     0.15740
H464        H  0.09477033  0.71731066  0.39324964     0.16310
C465        C  0.92583183  0.76372161  0.36954585    -0.13280
C466        C  0.89612720  0.73890672  0.37799082    -0.28460
H467        H  0.92151629  0.78525213  0.35188481     0.15740
H468        H  0.90197781  0.71596237  0.39436687     0.16310
C469        C  0.00042430  0.74267938  0.48934616    -0.10130
C470        C  0.00000630  0.74765467  0.46299495    -0.11680
C471        C  0.25516213  0.43598020  0.34045804    -0.13280
C472        C  0.23317675  0.40470411  0.33165959    -0.28460
H473        H  0.27392342  0.43381084  0.35992470     0.15740
H474        H  0.21444182  0.40736673  0.31222077     0.16310
C475        C  0.27448239  0.58351873  0.32354411    -0.13280
C476        C  0.25446991  0.59817595  0.34622249    -0.28460
H477        H  0.29183774  0.60360461  0.30950105     0.15740
H478        H  0.23545194  0.57891206  0.35964668     0.16310
C479        C  0.25938418  0.56965923  0.12209676    -0.13280
C480        C  0.23988987  0.59874188  0.13510145    -0.28460
H481        H  0.27637080  0.57517159  0.10210975     0.15740
H482        H  0.22090243  0.59139816  0.15381446     0.16310
C483        C  0.27201430  0.39719806  0.11533966    -0.13280
C484        C  0.24200025  0.42111293  0.12056180    -0.28460
H485        H  0.30222453  0.40882475  0.11637926     0.15740
H486        H  0.21171629  0.40972111  0.11987731     0.16310
C487        C  0.26256935  0.49090917  0.21368888    -0.10130
C488        C  0.26392804  0.49365195  0.24005805    -0.11680
C489        C  0.26001771  0.53043186  0.63624460     0.06280
C490        C  0.26480384  0.52812303  0.66704302    -0.09870
C491        C  0.26089341  0.49212416  0.68198842     0.03780
C492        C  0.25300534  0.45766835  0.66643245    -0.08400
C493        C  0.24962587  0.45905382  0.63560469     0.06270
C494        C  0.25334425  0.49548204  0.62028215    -0.07820
H495        H  0.27093525  0.55467586  0.67957692     0.11860
H496        H  0.24961210  0.42969529  0.67826170     0.09390
H497        H  0.24979922  0.49672308  0.59649420     0.09240
C498        C  0.27119327  0.54043069  0.81386277     0.06360
C499        C  0.27072274  0.53557367  0.78321662    -0.09870
C500        C  0.26695352  0.49809385  0.77124211     0.03780
C501        C  0.26436140  0.46496166  0.78960995    -0.08400
C502        C  0.26412039  0.46873341  0.82054476     0.06270
C503        C  0.26784869  0.50684375  0.83271748    -0.07820
H504        H  0.27303388  0.56117876  0.76856907     0.11860
H505        H  0.26347168  0.43616282  0.77948257     0.09390
H506        H  0.26869931  0.51023558  0.85646541     0.09240
C507        C  0.96463588  0.76343643  0.88501346     0.06280
C508        C  0.96478588  0.75746552  0.91583549    -0.09870
C509        C  0.00018447  0.75492987  0.93136253     0.03780
C510        C  0.03595025  0.75879480  0.91647071    -0.08400
C511        C  0.03680418  0.76494239  0.88567795     0.06270
C512        C  0.00091207  0.76836855  0.87002334    -0.07820
H513        H  0.93724253  0.75497210  0.92791717     0.11860
H514        H  0.06329170  0.75702555  0.92895547     0.09390
H515        H  0.00119634  0.77303552  0.84630039     0.09240
C516        C  0.03870993  0.74793649  0.56658209     0.06280
C517        C  0.03699712  0.74883295  0.53567597    -0.09870
C518        C  0.00202553  0.73930923  0.52094698     0.03780
C519        C  0.96813365  0.72944863  0.53697950    -0.08400
C520        C  0.96846949  0.73062992  0.56810376     0.06270
C521        C  0.00438966  0.73845808  0.58299916    -0.07820
H522        H  0.06312929  0.75700214  0.52296538     0.11860
H523        H  0.94097698  0.72252005  0.52512131     0.09390
H524        H  0.00508498  0.73958726  0.60689708     0.09240
Zn525      Zn  0.29171615  0.77530442  0.88985123     1.49720
Zn526      Zn  0.21752009  0.78750086  0.84529213     1.49360
Zn527      Zn  0.28339884  0.72193457  0.83296976     1.49110
Zn528      Zn  0.22494740  0.70782849  0.88613803     1.49480
O529        O  0.25407082  0.74852698  0.86338290    -1.80980
O530        O  0.28065095  0.83289066  0.89025748    -0.71610
O531        O  0.22214409  0.78694106  0.80028961    -0.71430
O532        O  0.34153177  0.73317301  0.83744966    -0.70950
O533        O  0.23039817  0.84400066  0.85962585    -0.71630
O534        O  0.34841520  0.77021262  0.87726591    -0.71220
O535        O  0.26691387  0.74112596  0.79245620    -0.71810
O536        O  0.23397527  0.65225334  0.87243581    -0.71200
O537        O  0.16008580  0.77318327  0.85646276    -0.71960
O538        O  0.27528608  0.66268483  0.83513704    -0.71350
O539        O  0.16740402  0.71793978  0.88307435    -0.71810
O540        O  0.23905631  0.70915844  0.92934792    -0.71720
O541        O  0.28681691  0.75532648  0.93184173    -0.71510
C542        C  0.25661084  0.85629648  0.87795186     0.80280
C543        C  0.24292879  0.76674656  0.78291326     0.80770
C544        C  0.36320985  0.75244831  0.85558510     0.79730
C545        C  0.25511250  0.63925079  0.85179347     0.80110
C546        C  0.14566326  0.74419939  0.87164643     0.81240
C547        C  0.26419504  0.72942244  0.94402611     0.80290
Zn548      Zn  0.21510920  0.76970340  0.58096441     1.49720
Zn549      Zn  0.27374369  0.79158492  0.63336045     1.49360
Zn550      Zn  0.21020956  0.72124290  0.64043684     1.49110
Zn551      Zn  0.28443168  0.71099361  0.59605729     1.49480
O552        O  0.24640332  0.74820526  0.61283080    -1.80980
O553        O  0.22248358  0.82770828  0.57776537    -0.71610
O554        O  0.25970562  0.79206941  0.67714635    -0.71430
O555        O  0.15239662  0.72660269  0.62968097    -0.70950
O556        O  0.26387036  0.84504281  0.61383021    -0.71630
O557        O  0.15779375  0.75866730  0.58682007    -0.71220
O558        O  0.21851659  0.74009452  0.68205812    -0.71810
O559        O  0.27076045  0.65451106  0.60936642    -0.71200
O560        O  0.33187910  0.78265071  0.63172604    -0.71960
O561        O  0.22060729  0.66380078  0.63996844    -0.71350
O562        O  0.34076255  0.72595697  0.60855466    -0.71810
O563        O  0.28289962  0.71218062  0.55128666    -0.71720
O564        O  0.23104536  0.74935313  0.54170774    -0.71510
C565        C  0.24265158  0.85374693  0.59143278     0.80280
C566        C  0.23848770  0.76863944  0.69308907     0.80770
C567        C  0.13676474  0.74200642  0.60683955     0.79730
C568        C  0.24424385  0.64121446  0.62708836     0.80110
C569        C  0.35433476  0.75612234  0.62223354     0.81240
C570        C  0.25915720  0.72828532  0.53318535     0.80290
C571        C  0.53629580  0.74018588  0.63477306     0.06280
C572        C  0.49969589  0.73524465  0.62004300    -0.09870
C573        C  0.46413797  0.73818980  0.63585409     0.03780
C574        C  0.46565712  0.74375061  0.66653710    -0.08400
C575        C  0.50168299  0.74769144  0.68117311     0.06270
C576        C  0.53679650  0.74577543  0.66552125    -0.07820
H577        H  0.49889372  0.73075738  0.59640066     0.11860
H578        H  0.43860478  0.74483998  0.67919937     0.09390
H579        H  0.56457022  0.74819051  0.67746634     0.09240
C580        C  0.46117985  0.74836927  0.81514220     0.06280
C581        C  0.46361473  0.74887969  0.78428118    -0.09870
C582        C  0.49892278  0.75914873  0.77030861     0.03780
C583        C  0.53239841  0.76833043  0.78700003    -0.08400
C584        C  0.53147875  0.76550964  0.81806965     0.06270
C585        C  0.49523784  0.75694070  0.83225881    -0.07820
H586        H  0.43777833  0.74135804  0.77101610     0.11860
H587        H  0.55976633  0.77593146  0.77567430     0.09390
H588        H  0.49407308  0.75467349  0.85613000     0.09240
Zn589      Zn  0.79016510  0.78513561  0.83425177     1.49720
Zn590      Zn  0.77167600  0.70864169  0.87734957     1.49360
Zn591      Zn  0.70868020  0.77846878  0.87346925     1.49110
Zn592      Zn  0.72285142  0.72282918  0.81896131     1.49480
O593        O  0.74869931  0.74929235  0.85138350    -1.80980
O594        O  0.84428003  0.77083205  0.85067462    -0.71610
O595        O  0.75167181  0.71315588  0.91933361    -0.71430
O596        O  0.72309781  0.83678906  0.87105523    -0.70950
O597        O  0.83028386  0.71776292  0.87880893    -0.71630
O598        O  0.77894278  0.84195794  0.84522223    -0.71220
O599        O  0.70881834  0.76194237  0.91706477    -0.71810
O600        O  0.66623392  0.73362352  0.81815321    -0.71200
O601        O  0.76099812  0.65225086  0.86330607    -0.71960
O602        O  0.65242113  0.77033092  0.85680361    -0.71350
O603        O  0.72560867  0.66500208  0.82308626    -0.71810
O604        O  0.74504539  0.73771886  0.77935258    -0.71720
O605        O  0.79275740  0.78196000  0.78896873    -0.71510
C606        C  0.85496403  0.74293133  0.86796463     0.80280
C607        C  0.72741988  0.73577167  0.93167099     0.80770
C608        C  0.75133270  0.85760875  0.85975093     0.79730
C609        C  0.64166707  0.75141896  0.83384305     0.80110
C610        C  0.74131799  0.64072308  0.84083870     0.81240
C611        C  0.77249663  0.76130667  0.77074681     0.80290
Zn612      Zn  0.73056137  0.78934858  0.62661482     1.49720
Zn613      Zn  0.77719047  0.77434879  0.56819886     1.49360
Zn614      Zn  0.79195724  0.71771145  0.62359768     1.49110
Zn615      Zn  0.70908340  0.71353601  0.58563491     1.49480
O616        O  0.75194939  0.74821464  0.60139723    -1.80980
O617        O  0.74212842  0.84542177  0.61143287    -0.71610
O618        O  0.83384403  0.76371042  0.56784498    -0.71430
O619        O  0.79318869  0.73448862  0.66691206    -0.70950
O620        O  0.77368429  0.83238060  0.57003405    -0.71630
O621        O  0.75121929  0.78404774  0.66843044    -0.71220
O622        O  0.84780177  0.72490892  0.60625259    -0.71810
O623        O  0.71686487  0.65767903  0.60106494    -0.71200
O624        O  0.75517630  0.75766684  0.52919546    -0.71960
O625        O  0.77605352  0.65937668  0.62305889    -0.71350
O626        O  0.70773900  0.71338906  0.54010481    -0.71810
O627        O  0.65552137  0.73089657  0.60022917    -0.71720
O628        O  0.67171483  0.78222850  0.62844790    -0.71510
C629        C  0.75960924  0.85680444  0.58785093     0.80280
C630        C  0.85840002  0.74474723  0.58333431     0.80770
C631        C  0.77527185  0.76091158  0.68108863     0.79730
C632        C  0.74487740  0.64057496  0.61467654     0.80110
C633        C  0.72818777  0.73333933  0.52125938     0.81240
C634        C  0.64600448  0.75857514  0.61741461     0.80290
C635        C  0.77429733  0.46452733  0.64531608     0.06280
C636        C  0.77442295  0.49946138  0.62798470    -0.09870
C637        C  0.76584361  0.53572590  0.64112962     0.03780
C638        C  0.75698652  0.53660590  0.67138658    -0.08400
C639        C  0.75765838  0.50199143  0.68850356     0.06270
C640        C  0.76647179  0.46624684  0.67554331    -0.07820
H641        H  0.78161120  0.49851340  0.60472028     0.11860
H642        H  0.75129706  0.56450571  0.68183181     0.09390
H643        H  0.76718958  0.43953170  0.68905753     0.09240
C644        C  0.76321673  0.46131309  0.82289606     0.06280
C645        C  0.75736808  0.46335297  0.79226340    -0.09870
C646        C  0.75427585  0.49984333  0.77798948     0.03780
C647        C  0.75612394  0.53438478  0.79425973    -0.08400
C648        C  0.76071004  0.53292971  0.82519362     0.06270
C649        C  0.76551415  0.49616541  0.83943360    -0.07820
H650        H  0.75618820  0.43648675  0.77947800     0.11860
H651        H  0.75455591  0.56255040  0.78265957     0.09390
H652        H  0.76988210  0.49459390  0.86314225     0.09240
C653        C  0.73411777  0.95744545  0.89518756     0.06280
C654        C  0.73183186  0.95990325  0.92598317    -0.09870
C655        C  0.73896937  0.99576056  0.93992822     0.03780
C656        C  0.74759538  0.02967485  0.92319220    -0.08400
C657        C  0.74678365  0.02893212  0.89198959     0.06270
C658        C  0.74149622  0.99205486  0.87807044    -0.07820
H659        H  0.72514592  0.93360254  0.93919199     0.11860
H660        H  0.75469967  0.05645750  0.93500756     0.09390
H661        H  0.74169618  0.99046657  0.85418984     0.09240
C662        C  0.74088640  0.96649395  0.57539522     0.06280
C663        C  0.73835062  0.96738213  0.54435353    -0.09870
C664        C  0.73836785  0.00312324  0.52882731     0.03780
C665        C  0.73979744  0.03852827  0.54412471    -0.08400
C666        C  0.74026257  0.03851930  0.57529495     0.06270
C667        C  0.74122673  0.00223417  0.59085361    -0.07820
H668        H  0.73647422  0.94012470  0.53208898     0.11860
H669        H  0.74121100  0.06599217  0.53155869     0.09390
H670        H  0.74266568  0.00183009  0.61477306     0.09240
Zn671      Zn  0.70667004  0.27822802  0.86860055     1.49720
Zn672      Zn  0.78567385  0.28034174  0.82898173     1.49360
Zn673      Zn  0.77939936  0.22439836  0.88431698     1.49110
Zn674      Zn  0.72667684  0.20357807  0.82821085     1.49480
O675        O  0.74928834  0.24668311  0.85219081    -1.80980
O676        O  0.71266693  0.33472859  0.85493279    -0.71610
O677        O  0.84330100  0.27374258  0.84092462    -0.71430
O678        O  0.76488777  0.24834770  0.92296074    -0.70950
O679        O  0.77169020  0.33769753  0.83334189    -0.71630
O680        O  0.70898173  0.27924229  0.91313777    -0.71220
O681        O  0.83826944  0.23083706  0.87830854    -0.71810
O682        O  0.73693544  0.14855418  0.84625653    -0.71200
O683        O  0.78039343  0.26635210  0.78580548    -0.71960
O684        O  0.76524581  0.16733467  0.88842444    -0.71350
O685        O  0.74529866  0.20959536  0.78562867    -0.71810
O686        O  0.66706047  0.20857207  0.82682357    -0.71720
O687        O  0.65242749  0.25857295  0.85579732    -0.71510
C688        C  0.74084108  0.35427173  0.84269321     0.80280
C689        C  0.85924761  0.25220052  0.86071019     0.80770
C690        C  0.73515807  0.26745770  0.93122154     0.79730
C691        C  0.74981692  0.14077546  0.87218199     0.80110
C692        C  0.76453357  0.23728563  0.77218531     0.81240
C693        C  0.64188495  0.23088620  0.83849388     0.80290
Zn694      Zn  0.71525526  0.29474659  0.58111849     1.49720
Zn695      Zn  0.79018833  0.28423788  0.62505910     1.49360
Zn696      Zn  0.71867225  0.21954615  0.62621480     1.49110
Zn697      Zn  0.77517270  0.22595208  0.57137894     1.49480
O698        O  0.74971847  0.25649767  0.60123114    -1.80980
O699        O  0.73033417  0.35046750  0.59245245    -0.71610
O700        O  0.78564819  0.26734446  0.66833712    -0.71430
O701        O  0.66152988  0.23366344  0.62339720    -0.70950
O702        O  0.78222510  0.34344090  0.62228712    -0.71630
O703        O  0.65825182  0.28475420  0.59210343    -0.71220
O704        O  0.73620932  0.22252995  0.66891902    -0.71810
O705        O  0.75612543  0.16995906  0.57192621    -0.71200
O706        O  0.84581252  0.27288664  0.61077982    -0.71960
O707        O  0.72021277  0.16266948  0.61263876    -0.71350
O708        O  0.83354740  0.22820200  0.57613431    -0.71810
O709        O  0.76288238  0.24549385  0.53066387    -0.71720
O710        O  0.71835140  0.29170993  0.53662477    -0.71510
C711        C  0.75739443  0.36517246  0.60886408     0.80280
C712        C  0.76287790  0.24288371  0.68212689     0.80770
C713        C  0.64168394  0.25917316  0.60910314     0.79730
C714        C  0.73498953  0.14881058  0.58932269     0.80110
C715        C  0.85761163  0.24899649  0.59136671     0.81240
C716        C  0.73923341  0.27058076  0.52015749     0.80290
C717        C  0.46944721  0.24622089  0.63809127     0.06280
C718        C  0.46800884  0.24801746  0.66906297    -0.09870
C719        C  0.50217841  0.24403079  0.68589753     0.03780
C720        C  0.53813519  0.23812225  0.67221168    -0.08400
C721        C  0.54047807  0.23773201  0.64141567     0.06270
C722        C  0.50617018  0.24242074  0.62410732    -0.07820
H723        H  0.44017302  0.25249103  0.68013169     0.11860
H724        H  0.56458647  0.23462307  0.68554113     0.09390
H725        H  0.50781467  0.24144788  0.60023792     0.09240
C726        C  0.46192426  0.26361911  0.81973553     0.06280
C727        C  0.49671969  0.25886432  0.83665943    -0.09870
C728        C  0.53261274  0.25047411  0.82246587     0.03780
C729        C  0.53288324  0.24725379  0.79152677    -0.08400
C730        C  0.49842823  0.25192096  0.77511258     0.06270
C731        C  0.46324849  0.26037565  0.78904546    -0.07820
H732        H  0.49594786  0.26207293  0.86041764     0.11860
H733        H  0.56017775  0.24236582  0.77988656     0.09390
H734        H  0.43662922  0.26417820  0.77595752     0.09240
C735        C  0.24911020  0.03862007  0.89188920     0.06280
C736        C  0.24323107  0.00309889  0.87628123    -0.09870
C737        C  0.24005205  0.96674349  0.89192613     0.03780
C738        C  0.24070501  0.96688704  0.92303831    -0.08400
C739        C  0.24668893  0.00199200  0.93831276     0.06270
C740        C  0.25108393  0.03763577  0.92279273    -0.07820
H741        H  0.24321519  0.00355830  0.85235185     0.11860
H742        H  0.23747033  0.93940144  0.93548917     0.09390
H743        H  0.25667972  0.06474602  0.93478353     0.09240
C744        C  0.26587212  0.03424237  0.57348266     0.06280
C745        C  0.26858454  0.99781193  0.58837011    -0.09870
C746        C  0.26572495  0.96249364  0.57255254     0.03780
C747        C  0.26240123  0.96402288  0.54148426    -0.08400
C748        C  0.26090301  0.00031867  0.52653696     0.06270
C749        C  0.26292263  0.03520580  0.54244689    -0.07820
H750        H  0.27082953  0.99689365  0.61226109     0.11860
H751        H  0.26103249  0.93704924  0.52887828     0.09390
H752        H  0.26195932  0.06320942  0.53057378     0.09240
C753        C  0.96058117  0.23887173  0.89590888     0.06280
C754        C  0.96260121  0.24672856  0.92615297    -0.09870
C755        C  0.99878357  0.25488758  0.93978827     0.03780
C756        C  0.03354394  0.25431243  0.92341227    -0.08400
C757        C  0.03254444  0.24670045  0.89284120     0.06270
C758        C  0.99562294  0.23880917  0.87911119    -0.07820
H759        H  0.93573605  0.24671132  0.93912603     0.11860
H760        H  0.06140916  0.25897714  0.93485958     0.09390
H761        H  0.99420287  0.23223115  0.85577844     0.09240
C762        C  0.96629144  0.27379106  0.57694931     0.06280
C763        C  0.96631460  0.27063991  0.54596134    -0.09870
C764        C  0.00168022  0.27102446  0.53041510     0.03780
C765        C  0.03737541  0.27502062  0.54554397    -0.08400
C766        C  0.03826631  0.27757589  0.57657310     0.06270
C767        C  0.00245579  0.27828416  0.59219626    -0.07820
H768        H  0.93870634  0.26779938  0.53383618     0.11860
H769        H  0.06465566  0.27538295  0.53308232     0.09390
H770        H  0.00277026  0.28019039  0.61606587     0.09240
Zn771      Zn  0.20509605  0.22131447  0.83756082     1.49720
Zn772      Zn  0.28068119  0.27866893  0.82605541     1.49360
Zn773      Zn  0.22812606  0.29242482  0.88223386     1.49110
Zn774      Zn  0.28323193  0.21732989  0.87934108     1.49480
O775        O  0.24891739  0.25202377  0.85628130    -1.80980
O776        O  0.20813711  0.22653367  0.79229826    -0.71610
O777        O  0.26843065  0.33635702  0.82474211    -0.71430
O778        O  0.16962865  0.28354791  0.88590856    -0.70950
O779        O  0.26558037  0.25899985  0.78542689    -0.71630
O780        O  0.15105990  0.23837550  0.85300709    -0.71220
O781        O  0.23497198  0.34807997  0.86567671    -0.71810
O782        O  0.28375671  0.23243948  0.92252007    -0.71200
O783        O  0.33941423  0.27138435  0.83327961    -0.71960
O784        O  0.25163704  0.28900165  0.92327555    -0.71350
O785        O  0.34020611  0.22241509  0.86649038    -0.71810
O786        O  0.26473336  0.16033074  0.87542396    -0.71720
O787        O  0.20986939  0.16284641  0.84818010    -0.71510
C788        C  0.23508941  0.24086105  0.77530873     0.80280
C789        C  0.25034324  0.35970752  0.84141326     0.80770
C790        C  0.14284335  0.26280952  0.87319206     0.79730
C791        C  0.27159252  0.26239982  0.93614946     0.80110
C792        C  0.35820136  0.24662576  0.84917599     0.81240
C793        C  0.23515947  0.14329085  0.86290816     0.80290
Zn794      Zn  0.21772414  0.28081289  0.62634467     1.49720
Zn795      Zn  0.29875357  0.27946179  0.58702291     1.49360
Zn796      Zn  0.27399438  0.20582581  0.63021409     1.49110
Zn797      Zn  0.22587698  0.22433812  0.57188252     1.49480
O798        O  0.25439056  0.24799965  0.60425684    -1.80980
O799        O  0.23493326  0.33811099  0.62093022    -0.71610
O800        O  0.35143099  0.26077175  0.60274445    -0.71430
O801        O  0.25460662  0.21167117  0.67236200    -0.70950
O802        O  0.29289149  0.33655058  0.59777236    -0.71630
O803        O  0.21985120  0.26666739  0.67042672    -0.71220
O804        O  0.33281229  0.21069970  0.63237113    -0.71810
O805        O  0.22982347  0.16654176  0.57297184    -0.71200
O806        O  0.29979988  0.27782430  0.54200363    -0.71960
O807        O  0.26137167  0.15086174  0.61447255    -0.71350
O808        O  0.24527035  0.24248807  0.53221768    -0.71810
O809        O  0.16914819  0.23465588  0.57412742    -0.71720
O810        O  0.16029330  0.27436159  0.61198569    -0.71510
C811        C  0.26563815  0.35549354  0.61012213     0.80280
C812        C  0.35954780  0.23299456  0.62090861     0.80770
C813        C  0.23494674  0.23818272  0.68497863     0.79730
C814        C  0.24404813  0.14108698  0.59051587     0.80110
C815        C  0.27541024  0.26250244  0.52371021     0.81240
C816        C  0.14675570  0.25424799  0.59041219     0.80290
C817        C  0.23122458  0.23725057  0.74360222    -0.10130
C818        C  0.23117151  0.23673475  0.71681357    -0.11680
C819        C  0.27914163  0.26544292  0.96733345    -0.10130
C820        C  0.28092682  0.26540345  0.99397493    -0.11680
C821        C  0.07697728  0.27708073  0.59212428    -0.13280
C822        C  0.10470304  0.25286900  0.58236056    -0.28460
H823        H  0.08301098  0.29697578  0.61028990     0.15740
H824        H  0.09674164  0.23201792  0.56512755     0.16310
C825        C  0.07031373  0.24499760  0.87600316    -0.13280
C826        C  0.10199680  0.26758616  0.88372655    -0.28460
H827        H  0.07253683  0.22401567  0.85820589     0.15740
H828        H  0.09854362  0.28996439  0.90040213     0.16310
C829        C  0.00085812  0.27037899  0.99685566    -0.10130
C830        C  0.00017966  0.26352987  0.97080722    -0.11680
C831        C  0.26491045  0.07147892  0.59012218    -0.13280
C832        C  0.24062000  0.09994849  0.58116989    -0.28460
H833        H  0.28506043  0.07608067  0.60857529     0.15740
H834        H  0.21991456  0.09402462  0.56323032     0.16310
C835        C  0.25775164  0.07704656  0.87718501    -0.13280
C836        C  0.22889083  0.10001253  0.86680375    -0.28460
H837        H  0.28698174  0.09005696  0.88100375     0.15740
H838        H  0.19928575  0.08751110  0.86375633     0.16310
C839        C  0.25514793  0.00010269  0.99634997    -0.10130
C840        C  0.25073306  0.00108812  0.96993662    -0.11680
C841        C  0.42326114  0.27247650  0.83255809    -0.13280
C842        C  0.40167805  0.24440659  0.84670732    -0.28460
H843        H  0.40877818  0.29860562  0.82407481     0.15740
H844        H  0.41565817  0.21748636  0.85420083     0.16310
C845        C  0.43203765  0.24777990  0.62111519    -0.13280
C846        C  0.40028669  0.22694655  0.63093878    -0.28460
H847        H  0.43007063  0.26719165  0.60188528     0.15740
H848        H  0.40391216  0.20602455  0.64915701     0.16310
C849        C  0.50042153  0.24628242  0.71733441    -0.10130
C850        C  0.49936050  0.24871093  0.74370361    -0.11680
C851        C  0.59850499  0.25993604  0.61303227    -0.13280
C852        C  0.57952257  0.23150168  0.62867473    -0.28460
H853        H  0.58273147  0.28567811  0.60527515     0.15740
H854        H  0.59583949  0.20669427  0.63748190     0.16310
C855        C  0.89969123  0.24598131  0.58417305    -0.13280
C856        C  0.92810800  0.27179450  0.59285957    -0.28460
H857        H  0.90681440  0.22399687  0.56788350     0.15740
H858        H  0.92248626  0.29314155  0.60991145     0.16310
C859        C  0.59999446  0.22545235  0.82979256    -0.13280
C860        C  0.57069223  0.24856794  0.83899810    -0.28460
H861        H  0.59376448  0.20374893  0.81283478     0.15740
H862        H  0.57581252  0.26880429  0.85709947     0.16310
C863        C  0.90288851  0.25357043  0.86425753    -0.13280
C864        C  0.92101651  0.22945648  0.88356388    -0.28460
H865        H  0.91974187  0.27719898  0.85326349     0.15740
H866        H  0.90352568  0.20706408  0.89541349     0.16310
C867        C  0.76700580  0.23679405  0.74043360    -0.10130
C868        C  0.76652375  0.23880191  0.71374482    -0.11680
C869        C  0.73089884  0.27477101  0.96210930    -0.10130
C870        C  0.73056205  0.27632609  0.98865906    -0.11680
C871        C  0.74204738  0.07649065  0.59133859    -0.13280
C872        C  0.72484914  0.10863585  0.58001843    -0.28460
H873        H  0.75942067  0.07863631  0.61152720     0.15740
H874        H  0.70697956  0.10638599  0.56011293     0.16310
C875        C  0.75069604  0.06645280  0.87411151    -0.13280
C876        C  0.74358818  0.10171810  0.88618911    -0.28460
H877        H  0.75938476  0.06516412  0.85108959     0.15740
H878        H  0.73372474  0.10332356  0.90881669     0.16310
C879        C  0.73624554  0.99818868  0.97153779    -0.10130
C880        C  0.73334673  0.00027409  0.99797077    -0.11680
C881        C  0.76748486  0.42213785  0.83671382    -0.13280
C882        C  0.73638069  0.39688676  0.83782034    -0.28460
H883        H  0.79696769  0.41234354  0.84218687     0.15740
H884        H  0.70691461  0.40751694  0.83321633     0.16310
C885        C  0.78255047  0.42542205  0.63319950    -0.13280
C886        C  0.75834174  0.40838148  0.61331894    -0.28460
H887        H  0.80341652  0.40740694  0.64532929     0.15740
H888        H  0.73558850  0.42576066  0.60270690     0.16310
C889        C  0.75241856  0.50313824  0.71986834    -0.10130
C890        C  0.75153959  0.50203779  0.74640306    -0.11680
C891        C  0.73953248  0.59847326  0.62293936    -0.13280
C892        C  0.76975714  0.57360839  0.62460611    -0.28460
H893        H  0.71023709  0.58823525  0.62976837     0.15740
H894        H  0.79869246  0.58266892  0.61629585     0.16310
C895        C  0.76333530  0.89868087  0.57924889    -0.13280
C896        C  0.74284533  0.92786889  0.59115859    -0.28460
H897        H  0.78138440  0.90514714  0.55988852     0.15740
H898        H  0.72594704  0.92284834  0.61125352     0.16310
C899        C  0.73635126  0.59886197  0.83345395    -0.13280
C900        C  0.76092483  0.57029675  0.84190552    -0.28460
H901        H  0.71395570  0.59225758  0.81680445     0.15740
H902        H  0.78287877  0.57536885  0.85910442     0.16310
C903        C  0.75320508  0.90084318  0.86473355    -0.13280
C904        C  0.72691650  0.91808356  0.88221454    -0.28460
H905        H  0.77863824  0.91786438  0.85658328     0.15740
H906        H  0.70291933  0.90021904  0.89172086     0.16310
C907        C  0.77986440  0.76432733  0.73940540    -0.10130
C908        C  0.78057605  0.76366850  0.71267270    -0.11680
C909        C  0.72240060  0.73272875  0.96331412    -0.10130
C910        C  0.72252398  0.73247475  0.99008150    -0.11680
C911        C  0.56943181  0.76746991  0.83471586    -0.13280
C912        C  0.60056010  0.74913143  0.82342070    -0.28460
H913        H  0.57178254  0.78325082  0.85538246     0.15740
H914        H  0.59600400  0.73140767  0.80377887     0.16310
C915        C  0.57435069  0.73912640  0.61866093    -0.13280
C916        C  0.60476118  0.76315357  0.62664035    -0.28460
H917        H  0.57789264  0.71755343  0.60141540     0.15740
H918        H  0.59977955  0.78603704  0.64270460     0.16310
C919        C  0.50235819  0.75354314  0.71245351    -0.10130
C920        C  0.50138838  0.75730457  0.73878182    -0.11680
C921        C  0.39665401  0.76069296  0.62933858    -0.13280
C922        C  0.42491374  0.73594988  0.62107983    -0.28460
H923        H  0.40458963  0.78473154  0.64409116     0.15740
H924        H  0.41875152  0.71313271  0.60496233     0.16310
C925        C  0.24161145  0.89420484  0.57941817    -0.13280
C926        C  0.26515027  0.92407803  0.58860273    -0.28460
H927        H  0.22170983  0.89898603  0.56086269     0.15740
H928        H  0.28371961  0.92049933  0.60805082     0.16310
C929        C  0.40623034  0.75597658  0.85041865    -0.13280
C930        C  0.42245034  0.73708617  0.82785914    -0.28460
H931        H  0.42364004  0.77732809  0.86298851     0.15740
H932        H  0.40406074  0.71685583  0.81497155     0.16310
C933        C  0.25954212  0.89793401  0.88719831    -0.13280
C934        C  0.23821609  0.92808236  0.87652570    -0.28460
H935        H  0.28016323  0.90378008  0.90520727     0.15740
H936        H  0.21937588  0.92428508  0.85724101     0.16310
C937        C  0.23930884  0.77238646  0.75140515    -0.10130
C938        C  0.23820983  0.77313262  0.72469473    -0.11680
C939        C  0.26582064  0.72418614  0.97549007    -0.10130
C940        C  0.26432757  0.72340163  0.00208038    -0.11680
C941        C  0.07695469  0.75911354  0.58005841    -0.13280
C942        C  0.09355101  0.73890706  0.60237882    -0.28460
H943        H  0.09504935  0.78043470  0.56759565     0.15740
H944        H  0.07647134  0.71687259  0.61487993     0.16310
C945        C  0.93035643  0.72790854  0.58423374    -0.13280
C946        C  0.89929182  0.74673261  0.57270351    -0.28460
H947        H  0.92800086  0.71169551  0.60504604     0.15740
H948        H  0.90377286  0.76495979  0.55295634     0.16310
C949        C  0.07566529  0.76672820  0.87054912    -0.13280
C950        C  0.10320418  0.74060554  0.87843348    -0.28460
H951        H  0.08224838  0.79030062  0.85467297     0.15740
H952        H  0.09467843  0.71624541  0.89319637     0.16310
C953        C  0.92621899  0.76426764  0.86905032    -0.13280
C954        C  0.89639380  0.73960842  0.87748389    -0.28460
H955        H  0.92205017  0.78582614  0.85138688     0.15740
H956        H  0.90212139  0.71667437  0.89389750     0.16310
C957        C  0.00002288  0.74333598  0.98908360    -0.10130
C958        C  0.99980794  0.74812596  0.96271424    -0.11680
C959        C  0.26246945  0.43240485  0.83951152    -0.13280
C960        C  0.24340490  0.39960343  0.82996505    -0.28460
H961        H  0.27947147  0.43160924  0.85991525     0.15740
H962        H  0.22567527  0.40077937  0.80995025     0.16310
C963        C  0.27625043  0.58134054  0.82451629    -0.13280
C964        C  0.25526186  0.59613117  0.84665587    -0.28460
H965        H  0.29413678  0.60144364  0.81086011     0.15740
H966        H  0.23579651  0.57683031  0.85969586     0.16310
C967        C  0.26034946  0.57000337  0.62184651    -0.13280
C968        C  0.24076065  0.59904799  0.63482114    -0.28460
H969        H  0.27734222  0.57552212  0.60186383     0.15740
H970        H  0.22179874  0.59165185  0.65353986     0.16310
C971        C  0.27113827  0.39851740  0.61335540    -0.13280
C972        C  0.24124895  0.42161577  0.62059005    -0.28460
H973        H  0.30109704  0.41086724  0.61269078     0.15740
H974        H  0.21134279  0.40931395  0.62196808     0.16310
C975        C  0.26375698  0.49130021  0.71349993    -0.10130
C976        C  0.26561928  0.49358403  0.73988887    -0.11680
loop_ 
_geom_bond_atom_site_label_1 
_geom_bond_atom_site_label_2 
_geom_bond_distance 
_geom_bond_site_symmetry_2 
_ccdc_geom_bond_type 
C1            C2   1.404       .  A
C1            C6   1.408       .  A
C1          C479   1.481       .  S
C2            C3   1.389       .  A
C2            H7   1.085       .  S
C3            C4   1.391       .  A
C3          C487   1.429       .  S
C4            C5   1.400       .  A
C4            H8   1.085       .  S
C5            C6   1.409       .  A
C5          C484   1.468       .  S
C6            H9   1.083       .  S
C10          C11   1.400       .  A
C10          C15   1.412       .  A
C10         C475   1.476       .  S
C11          C12   1.391       .  A
C11          H16   1.085       .  S
C12          C13   1.388       .  A
C12         C488   1.430       .  S
C13          C14   1.407       .  A
C13          H17   1.084       .  S
C14          C15   1.408       .  A
C14         C471   1.484       .  S
C15          H18   1.083       .  S
C19          C20   1.407       .  A
C19          C24   1.411   1_655  A
C19         C465   1.486       .  S
C20          C21   1.390   1_655  A
C20          H25   1.084       .  S
C21          C22   1.391       .  A
C21         C470   1.435       .  S
C22          C23   1.407       .  A
C22          H26   1.085       .  S
C23          C24   1.410       .  A
C23         C461   1.486       .  S
C24          H27   1.083       .  S
C28          C29   1.400       .  A
C28          C33   1.410       .  A
C28         C453   1.471       .  S
C29          C30   1.389       .  A
C29          H34   1.085       .  S
C30          C31   1.392   1_455  A
C30         C957   1.434   1_554  S
C31          C32   1.410       .  A
C31          H35   1.084       .  S
C32          C33   1.408   1_655  A
C32         C457   1.485       .  S
C33          H36   1.083       .  S
Zn37         O41   1.957       .  S
Zn37         O42   1.987       .  S
Zn37         O46   2.016       .  S
Zn37         O53   2.013       .  S
Zn38         O41   1.995       .  S
Zn38         O43   2.045       .  S
Zn38         O45   2.061       .  S
Zn38         O49   2.058       .  S
Zn39         O41   1.944       .  S
Zn39         O44   2.003       .  S
Zn39         O47   2.014       .  S
Zn39         O50   2.010       .  S
Zn40         O41   1.954       .  S
Zn40         O48   2.013       .  S
Zn40         O51   1.988       .  S
Zn40         O52   2.010       .  S
O42          C54   1.271       .  A
O43          C55   1.276       .  A
O44          C56   1.274       .  A
O45          C54   1.278       .  A
O46          C56   1.270       .  A
O47          C55   1.272       .  A
O48          C57   1.270       .  A
O49          C58   1.278       .  A
O50          C57   1.273       .  A
O51          C58   1.271       .  A
O52          C59   1.270       .  A
O53          C59   1.271       .  A
C54         C445   1.474       .  S
C55         C449   1.441       .  S
C56         C441   1.477       .  S
C57         C476   1.477       .  S
C58         C462   1.473       .  S
C59         C451   1.433       .  S
Zn60         O64   1.930       .  S
Zn60         O65   1.975       .  S
Zn60         O69   1.983       .  S
Zn60         O76   1.999       .  S
Zn61         O64   1.958       .  S
Zn61         O66   2.037       .  S
Zn61         O68   2.029       .  S
Zn61         O72   1.999       .  S
Zn62         O64   1.955       .  S
Zn62         O67   2.027       .  S
Zn62         O70   2.016       .  S
Zn62         O73   1.986       .  S
Zn63         O64   1.985       .  S
Zn63         O71   2.038       .  S
Zn63         O74   2.040       .  S
Zn63         O75   2.028       .  S
O65          C77   1.267       .  A
O66          C78   1.274       .  A
O67          C79   1.271       .  A
O68          C77   1.274       .  A
O69          C79   1.272       .  A
O70          C78   1.272       .  A
O71          C80   1.276       .  A
O72          C81   1.272       .  A
O73          C80   1.271       .  A
O74          C81   1.276       .  A
O75          C82   1.272       .  A
O76          C82   1.269       .  A
C77         C437   1.465       .  S
C78         C450   1.441       .  S
C79         C454   1.477       .  S
C80         C480   1.466       .  S
C81         C433   1.471       .  S
C82         C940   1.434       .  S
C83          C84   1.411       .  A
C83          C88   1.408       .  A
C83         C427   1.485       .  S
C84          C85   1.410       .  A
C84          H89   1.083       .  S
C85          C86   1.405       .  A
C85         C434   1.484       .  S
C86          C87   1.389       .  A
C86          H90   1.085       .  S
C87          C88   1.390       .  A
C87         C431   1.433       .  S
C88          H91   1.084       .  S
C92          C93   1.400       .  A
C92          C97   1.412       .  A
C92         C442   1.473       .  S
C93          C94   1.389       .  A
C93          H98   1.085       .  S
C94          C95   1.390       .  A
C94         C432   1.432       .  S
C95          C96   1.409       .  A
C95          H99   1.084       .  S
C96          C97   1.409       .  A
C96         C423   1.486       .  S
C97         H100   1.083       .  S
Zn101       O105   1.985       .  S
Zn101       O106   2.040       .  S
Zn101       O110   2.041       .  S
Zn101       O117   2.055       .  S
Zn102       O105   1.971       .  S
Zn102       O107   2.030       .  S
Zn102       O109   2.003       .  S
Zn102       O113   2.048       .  S
Zn103       O105   1.981       .  S
Zn103       O108   2.024       .  S
Zn103       O111   2.042       .  S
Zn103       O114   2.057       .  S
Zn104       O105   1.926       .  S
Zn104       O112   1.962       .  S
Zn104       O115   1.972       .  S
Zn104       O116   1.999       .  S
O106        C118   1.276       .  A
O107        C119   1.274       .  A
O108        C120   1.277       .  A
O109        C118   1.273       .  A
O110        C120   1.277       .  A
O111        C119   1.275       .  A
O112        C121   1.267       .  A
O113        C122   1.274       .  A
O114        C121   1.275       .  A
O115        C122   1.267       .  A
O116        C123   1.268       .  A
O117        C123   1.275       .  A
C118        C466   1.472       .  S
C119        C421   1.445       .  S
C120        C415   1.484       .  S
C121        C424   1.467       .  S
C122        C411   1.468       .  S
C123        C419   1.443       .  S
Zn124       O128   1.966       .  S
Zn124       O129   2.030       .  S
Zn124       O133   2.018       .  S
Zn124       O140   1.997       .  S
Zn125       O128   1.928       .  S
Zn125       O130   1.965       .  S
Zn125       O132   1.981       .  S
Zn125       O136   2.002       .  S
Zn126       O128   1.985       .  S
Zn126       O131   2.049       .  S
Zn126       O134   2.056       .  S
Zn126       O137   2.034       .  S
Zn127       O128   1.980       .  S
Zn127       O135   2.029       .  S
Zn127       O138   2.060       .  S
Zn127       O139   2.039       .  S
O129        C141   1.272       .  A
O130        C142   1.267       .  A
O131        C143   1.276       .  A
O132        C141   1.268       .  A
O133        C143   1.272       .  A
O134        C142   1.276       .  A
O135        C144   1.275       .  A
O136        C145   1.269       .  A
O137        C144   1.277       .  A
O138        C145   1.276       .  A
O139        C146   1.275       .  A
O140        C146   1.272       .  A
C141        C407   1.466       .  S
C142        C458   1.468       .  S
C143        C420   1.443       .  S
C144        C403   1.476       .  S
C145        C910   1.445   1_554  S
C146        C428   1.471       .  S
C147        C148   1.409       .  A
C147        C152   1.397       .  A
C147        C397   1.472       .  S
C148        C149   1.409       .  A
C148        H153   1.083       .  S
C149        C150   1.404       .  A
C149        C404   1.477       .  S
C150        C151   1.397       .  A
C150        H154   1.085       .  S
C151        C152   1.393       .  A
C151        C401   1.433       .  S
C152        H155   1.085       .  S
C156        C157   1.401       .  A
C156        C161   1.408       .  A
C156        C393   1.470       .  S
C157        C158   1.392       .  A
C157        H162   1.085       .  S
C158        C159   1.391       .  A
C158        C402   1.434       .  S
C159        C160   1.409       .  A
C159        H163   1.084       .  S
C160        C161   1.408       .  A
C160        C412   1.486       .  S
C161        H164   1.083       .  S
C165        C166   1.401       .  A
C165        C170   1.412       .  A
C165        C416   1.479       .  S
C166        C167   1.393       .  A
C166        H171   1.085       .  S
C167        C168   1.394   1_565  A
C167        C391   1.439   1_565  S
C168        C169   1.411       .  A
C168        H172   1.084       .  S
C169        C170   1.412   1_545  A
C169        C387   1.491       .  S
C170        H173   1.083       .  S
C174        C175   1.407       .  A
C174        C179   1.408   1_565  A
C174        C408   1.482       .  S
C175        C176   1.389   1_565  A
C175        H180   1.084       .  S
C176        C177   1.393       .  A
C176        C880   1.438   1_554  S
C177        C178   1.411       .  A
C177        H181   1.084       .  S
C178        C179   1.408       .  A
C178        C383   1.486       .  S
C179        H182   1.084       .  S
Zn183       O187   1.972       .  S
Zn183       O188   2.013       .  S
Zn183       O192   2.021       .  S
Zn183       O199   2.023       .  S
Zn184       O187   1.966       .  S
Zn184       O189   2.042       .  S
Zn184       O191   2.028       .  S
Zn184       O195   2.026       .  S
Zn185       O187   1.927       .  S
Zn185       O190   2.004       .  S
Zn185       O193   1.981       .  S
Zn185       O196   1.983       .  S
Zn186       O187   1.967       .  S
Zn186       O194   2.063       .  S
Zn186       O197   2.039       .  S
Zn186       O198   2.015       .  S
O188        C200   1.272       .  A
O189        C201   1.273       .  A
O190        C202   1.270       .  A
O191        C200   1.276       .  A
O192        C202   1.271       .  A
O193        C201   1.270       .  A
O194        C203   1.277       .  A
O195        C204   1.274       .  A
O196        C203   1.269       .  A
O197        C204   1.276       .  A
O198        C205   1.274       .  A
O199        C205   1.274       .  A
C200        C394   1.471       .  S
C201        C375   1.480       .  S
C202        C381   1.433       .  S
C203        C388   1.475       .  S
C204        C379   1.442       .  S
C205        C371   1.473       .  S
Zn206       O210   1.975       .  S
Zn206       O211   2.016       .  S
Zn206       O215   2.017       .  S
Zn206       O222   2.026       .  S
Zn207       O210   1.976       .  S
Zn207       O212   2.036       .  S
Zn207       O214   2.030       .  S
Zn207       O218   2.056       .  S
Zn208       O210   1.974       .  S
Zn208       O213   2.027       .  S
Zn208       O216   2.033       .  S
Zn208       O219   2.058       .  S
Zn209       O210   1.926       .  S
Zn209       O217   1.965       .  S
Zn209       O220   1.966       .  S
Zn209       O221   1.990       .  S
O211        C223   1.273       .  A
O212        C224   1.276       .  A
O213        C225   1.277       .  A
O214        C223   1.277       .  A
O215        C225   1.272       .  A
O216        C224   1.275       .  A
O217        C226   1.266       .  A
O218        C227   1.275       .  A
O219        C226   1.275       .  A
O220        C227   1.266       .  A
O221        C228   1.268       .  A
O222        C228   1.271       .  A
C223        C398   1.478       .  S
C224        C380   1.442       .  S
C225        C363   1.479       .  S
C226        C384   1.469       .  S
C227        C367   1.469       .  S
C228        C870   1.432   1_554  S
C229        C230   1.407       .  A
C229        C234   1.411       .  A
C229        C357   1.486       .  S
C230        C231   1.392       .  A
C230        H235   1.084       .  S
C231        C232   1.391       .  A
C231        C361   1.432       .  S
C232        C233   1.399       .  A
C232        H236   1.085       .  S
C233        C234   1.412       .  A
C233        C364   1.474       .  S
C234        H237   1.083       .  S
C238        C239   1.411       .  A
C238        C243   1.407       .  A
C238        C353   1.486       .  S
C239        C240   1.411       .  A
C239        H244   1.083       .  S
C240        C241   1.406       .  A
C240        C372   1.484       .  S
C241        C242   1.390       .  A
C241        H245   1.084       .  S
C242        C243   1.390       .  A
C242        C362   1.432       .  S
C243        H246   1.084       .  S
C247        C248   1.411       .  A
C247        C252   1.407       .  A
C247        C347   1.484       .  S
C248        C249   1.410   1_545  A
C248        H253   1.083       .  S
C249        C250   1.407       .  A
C249        C446   1.489       .  S
C250        C251   1.393   1_565  A
C250        H254   1.084       .  S
C251        C252   1.397       .  A
C251        C352   1.441       .  S
C252        H255   1.084       .  S
C256        C257   1.402   1_545  A
C256        C261   1.409       .  A
C256        C343   1.479       .  S
C257        C258   1.403       .  A
C257        H262   1.084       .  S
C258        C259   1.409       .  A
C258        C438   1.478       .  S
C259        C260   1.393       .  A
C259        H263   1.084       .  S
C260        C261   1.393   1_565  A
C260        C839   1.438   1_564  S
C261        H264   1.084       .  S
C265        C266   1.400       .  A
C265        C270   1.407       .  A
C265        C376   1.470       .  S
C266        C267   1.391       .  A
C266        H271   1.085       .  S
C267        C268   1.394   1_655  A
C267        C342   1.438   1_655  S
C268        C269   1.411       .  A
C268        H272   1.084       .  S
C269        C270   1.408   1_455  A
C269        C337   1.486       .  S
C270        H273   1.084       .  S
C274        C275   1.410       .  A
C274        C279   1.408   1_655  A
C274        C368   1.485       .  S
C275        C276   1.392   1_655  A
C275        H280   1.084       .  S
C276        C277   1.391       .  A
C276        C829   1.439   1_554  S
C277        C278   1.410       .  A
C277        H281   1.084       .  S
C278        C279   1.408       .  A
C278        C333   1.486       .  S
C279        H282   1.084       .  S
Zn283       O287   1.974       .  S
Zn283       O288   2.070       .  S
Zn283       O292   2.046       .  S
Zn283       O299   2.027       .  S
Zn284       O287   1.925       .  S
Zn284       O289   1.992       .  S
Zn284       O291   2.003       .  S
Zn284       O295   1.996       .  S
Zn285       O287   1.963       .  S
Zn285       O290   1.988       .  S
Zn285       O293   2.024       .  S
Zn285       O296   2.011       .  S
Zn286       O287   1.972       .  S
Zn286       O294   2.036       .  S
Zn286       O297   2.044       .  S
Zn286       O298   2.042       .  S
O288        C300   1.278       .  A
O289        C301   1.270       .  A
O290        C302   1.271       .  A
O291        C300   1.269       .  A
O292        C302   1.277       .  A
O293        C301   1.270       .  A
O294        C303   1.274       .  A
O295        C304   1.272       .  A
O296        C303   1.271       .  A
O297        C304   1.277       .  A
O298        C305   1.277       .  A
O299        C305   1.275       .  A
C300        C329   1.447       .  S
C301        C472   1.460       .  S
C302        C338   1.471       .  S
C303        C331   1.438       .  S
C304        C354   1.472       .  S
C305        C348   1.473       .  S
Zn306       O310   1.975       .  S
Zn306       O311   2.024       .  S
Zn306       O315   2.048       .  S
Zn306       O322   2.055       .  S
Zn307       O310   1.981       .  S
Zn307       O312   2.042       .  S
Zn307       O314   2.015       .  S
Zn307       O318   2.048       .  S
Zn308       O310   1.963       .  S
Zn308       O313   2.035       .  S
Zn308       O316   2.003       .  S
Zn308       O319   2.037       .  S
Zn309       O310   1.925       .  S
Zn309       O317   1.962       .  S
Zn309       O320   1.987       .  S
Zn309       O321   1.966       .  S
O311        C323   1.277       .  A
O312        C324   1.276       .  A
O313        C325   1.275       .  A
O314        C323   1.274       .  A
O315        C325   1.277       .  A
O316        C324   1.272       .  A
O317        C326   1.266       .  A
O318        C327   1.274       .  A
O319        C326   1.274       .  A
O320        C327   1.267       .  A
O321        C328   1.266       .  A
O322        C328   1.275       .  A
C323        C483   1.472       .  S
C324        C358   1.473       .  S
C325        C330   1.448       .  S
C326        C344   1.463       .  S
C327        C820   1.437   1_554  S
C328        C334   1.469       .  S
C329        C330   1.213       .  T
C331        C332   1.208       .  T
C332        C815   1.438       .  S
C333        C334   1.344       .  D
C333        H335   1.086       .  S
C334        H336   1.088       .  S
C337        C338   1.344       .  D
C337        H339   1.086       .  S
C338        H340   1.087       .  S
C341        C764   1.438       .  S
C341        C342   1.204       .  T
C343        C344   1.340       .  D
C343        H345   1.086       .  S
C344        H346   1.088       .  S
C347        C348   1.343       .  D
C347        H349   1.086       .  S
C348        H350   1.087       .  S
C351        C748   1.441       .  S
C351        C352   1.206       .  T
C353        C354   1.346       .  D
C353        H355   1.086       .  S
C354        H356   1.087       .  S
C357        C358   1.347       .  D
C357        H359   1.086       .  S
C358        H360   1.088       .  S
C361        C362   1.201       .  T
C363        C364   1.340       .  D
C363        H365   1.087       .  S
C364        H366   1.087       .  S
C367        C368   1.343       .  D
C367        H369   1.088       .  S
C368        H370   1.086       .  S
C371        C372   1.347       .  D
C371        H373   1.087       .  S
C372        H374   1.086       .  S
C375        C376   1.345       .  D
C375        H377   1.086       .  S
C376        H378   1.087       .  S
C379        C380   1.210       .  T
C381        C382   1.204       .  T
C382        C716   1.432       .  S
C383        C384   1.342       .  D
C383        H385   1.086       .  S
C384        H386   1.088       .  S
C387        C388   1.346       .  D
C387        H389   1.086       .  S
C388        H390   1.087       .  S
C391        C392   1.205       .  T
C392        C664   1.439       .  S
C393        C394   1.341       .  D
C393        H395   1.086       .  S
C394        H396   1.087       .  S
C397        C398   1.341       .  D
C397        H399   1.087       .  S
C398        H400   1.087       .  S
C401        C402   1.202       .  T
C403        C404   1.343       .  D
C403        H405   1.087       .  S
C404        H406   1.086       .  S
C407        C408   1.344       .  D
C407        H409   1.087       .  S
C408        H410   1.086       .  S
C411        C412   1.344       .  D
C411        H413   1.088       .  S
C412        H414   1.086       .  S
C415        C416   1.344       .  D
C415        H417   1.087       .  S
C416        H418   1.087       .  S
C419        C420   1.211       .  T
C421        C422   1.211       .  T
C422        C633   1.444       .  S
C423        C424   1.344       .  D
C423        H425   1.086       .  S
C424        H426   1.088       .  S
C427        C428   1.346       .  D
C427        H429   1.086       .  S
C428        H430   1.087       .  S
C431        C432   1.201       .  T
C433        C434   1.346       .  D
C433        H435   1.088       .  S
C434        H436   1.086       .  S
C437        C438   1.341       .  D
C437        H439   1.087       .  S
C438        H440   1.086       .  S
C441        C442   1.340       .  D
C441        H443   1.086       .  S
C442        H444   1.088       .  S
C445        C446   1.345       .  D
C445        H447   1.088       .  S
C446        H448   1.086       .  S
C449        C450   1.209       .  T
C451        C452   1.205       .  T
C452        C570   1.433       .  S
C453        C454   1.341       .  D
C453        H455   1.088       .  S
C454        H456   1.086       .  S
C457        C458   1.343       .  D
C457        H459   1.086       .  S
C458        H460   1.088       .  S
C461        C462   1.345       .  D
C461        H463   1.086       .  S
C462        H464   1.088       .  S
C465        C466   1.347       .  D
C465        H467   1.086       .  S
C466        H468   1.087       .  S
C469        C518   1.434       .  S
C469        C470   1.202       .  T
C471        C472   1.342       .  D
C471        H473   1.086       .  S
C472        H474   1.086       .  S
C475        C476   1.341       .  D
C475        H477   1.087       .  S
C476        H478   1.086       .  S
C479        C480   1.344       .  D
C479        H481   1.086       .  S
C480        H482   1.088       .  S
C483        C484   1.340       .  D
C483        H485   1.087       .  S
C484        H486   1.086       .  S
C487        C488   1.199       .  T
C489        C490   1.404       .  A
C489        C494   1.408       .  A
C489        C967   1.481       .  S
C490        C491   1.389       .  A
C490        H495   1.085       .  S
C491        C492   1.391       .  A
C491        C975   1.429       .  S
C492        C493   1.400       .  A
C492        H496   1.085       .  S
C493        C494   1.409       .  A
C493        C972   1.468       .  S
C494        H497   1.083       .  S
C498        C499   1.400       .  A
C498        C503   1.414       .  A
C498        C963   1.479       .  S
C499        C500   1.390       .  A
C499        H504   1.085       .  S
C500        C501   1.388       .  A
C500        C976   1.430       .  S
C501        C502   1.408       .  A
C501        H505   1.083       .  S
C502        C503   1.413       .  A
C502        C959   1.490       .  S
C503        H506   1.083       .  S
C507        C508   1.407       .  A
C507        C512   1.411   1_655  A
C507        C953   1.485       .  S
C508        C509   1.390   1_655  A
C508        H513   1.084       .  S
C509        C510   1.391       .  A
C509        C958   1.435   1_455  S
C510        C511   1.407       .  A
C510        H514   1.085       .  S
C511        C512   1.410       .  A
C511        C949   1.486       .  S
C512        H515   1.083       .  S
C516        C517   1.400       .  A
C516        C521   1.410       .  A
C516        C941   1.471       .  S
C517        C518   1.389       .  A
C517        H522   1.085       .  S
C518        C519   1.391   1_455  A
C519        C520   1.410       .  A
C519        H523   1.084       .  S
C520        C521   1.408   1_655  A
C520        C945   1.486       .  S
C521        H524   1.083       .  S
Zn525       O529   1.959       .  S
Zn525       O530   1.995       .  S
Zn525       O534   2.017       .  S
Zn525       O541   2.015       .  S
Zn526       O529   1.997       .  S
Zn526       O531   2.045       .  S
Zn526       O533   2.064       .  S
Zn526       O537   2.055       .  S
Zn527       O529   1.947       .  S
Zn527       O532   2.004       .  S
Zn527       O535   2.018       .  S
Zn527       O538   2.019       .  S
Zn528       O529   1.957       .  S
Zn528       O536   2.021       .  S
Zn528       O539   1.991       .  S
Zn528       O540   2.012       .  S
O530        C542   1.272       .  A
O531        C543   1.276       .  A
O532        C544   1.274       .  A
O533        C542   1.278       .  A
O534        C544   1.270       .  A
O535        C543   1.273       .  A
O536        C545   1.271       .  A
O537        C546   1.278       .  A
O538        C545   1.274       .  A
O539        C546   1.272       .  A
O540        C547   1.270       .  A
O541        C547   1.271       .  A
C542        C933   1.477       .  S
C543        C937   1.441       .  S
C544        C929   1.478       .  S
C545        C964   1.482       .  S
C546        C950   1.473       .  S
C547        C939   1.434       .  S
Zn548       O552   1.931       .  S
Zn548       O553   1.977       .  S
Zn548       O557   1.985       .  S
Zn548       O564   1.997       .  S
Zn549       O552   1.959       .  S
Zn549       O554   2.041       .  S
Zn549       O556   2.038       .  S
Zn549       O560   2.001       .  S
Zn550       O552   1.955       .  S
Zn550       O555   2.027       .  S
Zn550       O558   2.014       .  S
Zn550       O561   1.986       .  S
Zn551       O552   1.986       .  S
Zn551       O559   2.039       .  S
Zn551       O562   2.040       .  S
Zn551       O563   2.027       .  S
O553        C565   1.267       .  A
O554        C566   1.275       .  A
O555        C567   1.271       .  A
O556        C565   1.275       .  A
O557        C567   1.272       .  A
O558        C566   1.272       .  A
O559        C568   1.276       .  A
O560        C569   1.273       .  A
O561        C568   1.271       .  A
O562        C569   1.276       .  A
O563        C570   1.272       .  A
O564        C570   1.269       .  A
C565        C925   1.468       .  S
C566        C938   1.441       .  S
C567        C942   1.477       .  S
C568        C968   1.467       .  S
C569        C921   1.471       .  S
C571        C572   1.411       .  A
C571        C576   1.408       .  A
C571        C915   1.485       .  S
C572        C573   1.410       .  A
C572        H577   1.083       .  S
C573        C574   1.405       .  A
C573        C922   1.484       .  S
C574        C575   1.389       .  A
C574        H578   1.085       .  S
C575        C576   1.390       .  A
C575        C919   1.433       .  S
C576        H579   1.084       .  S
C580        C581   1.400       .  A
C580        C585   1.412       .  A
C580        C930   1.474       .  S
C581        C582   1.389       .  A
C581        H586   1.085       .  S
C582        C583   1.390       .  A
C582        C920   1.433       .  S
C583        C584   1.409       .  A
C583        H587   1.084       .  S
C584        C585   1.409       .  A
C584        C911   1.487       .  S
C585        H588   1.083       .  S
Zn589       O593   1.985       .  S
Zn589       O594   2.041       .  S
Zn589       O598   2.040       .  S
Zn589       O605   2.057       .  S
Zn590       O593   1.970       .  S
Zn590       O595   2.030       .  S
Zn590       O597   2.001       .  S
Zn590       O601   2.044       .  S
Zn591       O593   1.981       .  S
Zn591       O596   2.023       .  S
Zn591       O599   2.044       .  S
Zn591       O602   2.058       .  S
Zn592       O593   1.925       .  S
Zn592       O600   1.961       .  S
Zn592       O603   1.969       .  S
Zn592       O604   2.000       .  S
O594        C606   1.276       .  A
O595        C607   1.274       .  A
O596        C608   1.277       .  A
O597        C606   1.273       .  A
O598        C608   1.277       .  A
O599        C607   1.275       .  A
O600        C609   1.267       .  A
O601        C610   1.274       .  A
O602        C609   1.275       .  A
O603        C610   1.266       .  A
O604        C611   1.268       .  A
O605        C611   1.275       .  A
C606        C954   1.472       .  S
C607        C909   1.445       .  S
C608        C903   1.484       .  S
C609        C912   1.468       .  S
C610        C899   1.466       .  S
C611        C907   1.444       .  S
Zn612       O616   1.968       .  S
Zn612       O617   2.039       .  S
Zn612       O621   2.022       .  S
Zn612       O628   2.002       .  S
Zn613       O616   1.925       .  S
Zn613       O618   1.961       .  S
Zn613       O620   1.974       .  S
Zn613       O624   1.997       .  S
Zn614       O616   1.985       .  S
Zn614       O619   2.049       .  S
Zn614       O622   2.058       .  S
Zn614       O625   2.034       .  S
Zn615       O616   1.979       .  S
Zn615       O623   2.030       .  S
Zn615       O626   2.062       .  S
Zn615       O627   2.037       .  S
O617        C629   1.273       .  A
O618        C630   1.266       .  A
O619        C631   1.276       .  A
O620        C629   1.267       .  A
O621        C631   1.273       .  A
O622        C630   1.276       .  A
O623        C632   1.275       .  A
O624        C633   1.268       .  A
O625        C632   1.277       .  A
O626        C633   1.276       .  A
O627        C634   1.276       .  A
O628        C634   1.272       .  A
C629        C895   1.467       .  S
C630        C946   1.468       .  S
C631        C908   1.444       .  S
C632        C891   1.475       .  S
C634        C916   1.472       .  S
C635        C636   1.410       .  A
C635        C640   1.398       .  A
C635        C885   1.474       .  S
C636        C637   1.410       .  A
C636        H641   1.083       .  S
C637        C638   1.405       .  A
C637        C892   1.479       .  S
C638        C639   1.396       .  A
C638        H642   1.085       .  S
C639        C640   1.393       .  A
C639        C889   1.433       .  S
C640        H643   1.085       .  S
C644        C645   1.401       .  A
C644        C649   1.407       .  A
C644        C881   1.468       .  S
C645        C646   1.392       .  A
C645        H650   1.085       .  S
C646        C647   1.391       .  A
C646        C890   1.434       .  S
C647        C648   1.409       .  A
C647        H651   1.084       .  S
C648        C649   1.406       .  A
C648        C900   1.483       .  S
C649        H652   1.083       .  S
C653        C654   1.401       .  A
C653        C658   1.413       .  A
C653        C904   1.478       .  S
C654        C655   1.392       .  A
C654        H659   1.085       .  S
C655        C656   1.392   1_565  A
C655        C879   1.438       .  S
C656        C657   1.413       .  A
C656        H660   1.081       .  S
C657        C658   1.414   1_545  A
C657        C875   1.500       .  S
C658        H661   1.083       .  S
C662        C663   1.407       .  A
C662        C667   1.406   1_565  A
C662        C896   1.483       .  S
C663        C664   1.391   1_565  A
C663        H668   1.084       .  S
C664        C665   1.393       .  A
C665        C666   1.411       .  A
C665        H669   1.083       .  S
C666        C667   1.408       .  A
C666        C871   1.486       .  S
C667        H670   1.084       .  S
Zn671       O675   1.972       .  S
Zn671       O676   2.007       .  S
Zn671       O680   2.018       .  S
Zn671       O687   2.022       .  S
Zn672       O675   1.956       .  S
Zn672       O677   2.039       .  S
Zn672       O679   2.023       .  S
Zn672       O683   2.024       .  S
Zn673       O675   1.928       .  S
Zn673       O678   2.008       .  S
Zn673       O681   2.019       .  S
Zn673       O684   1.985       .  S
Zn674       O675   1.968       .  S
Zn674       O682   2.060       .  S
Zn674       O685   2.037       .  S
Zn674       O686   2.030       .  S
O676        C688   1.271       .  A
O677        C689   1.274       .  A
O678        C690   1.271       .  A
O679        C688   1.276       .  A
O680        C690   1.271       .  A
O681        C689   1.275       .  A
O682        C691   1.276       .  A
O683        C692   1.274       .  A
O684        C691   1.270       .  A
O685        C692   1.276       .  A
O686        C693   1.275       .  A
O687        C693   1.273       .  A
C688        C882   1.468       .  S
C689        C863   1.485       .  S
C690        C869   1.432       .  S
C691        C876   1.469       .  S
C692        C867   1.441       .  S
C693        C859   1.477       .  S
Zn694       O698   1.975       .  S
Zn694       O699   2.014       .  S
Zn694       O703   2.014       .  S
Zn694       O710   2.022       .  S
Zn695       O698   1.967       .  S
Zn695       O700   2.039       .  S
Zn695       O702   2.031       .  S
Zn695       O706   2.042       .  S
Zn696       O698   1.962       .  S
Zn696       O701   2.008       .  S
Zn696       O704   2.023       .  S
Zn696       O707   2.032       .  S
Zn697       O698   1.933       .  S
Zn697       O705   1.986       .  S
Zn697       O708   1.986       .  S
Zn697       O709   1.995       .  S
O699        C711   1.272       .  A
O700        C712   1.275       .  A
O701        C713   1.275       .  A
O702        C711   1.277       .  A
O703        C713   1.271       .  A
O704        C712   1.273       .  A
O705        C714   1.268       .  A
O706        C715   1.276       .  A
O707        C714   1.272       .  A
O708        C715   1.270       .  A
O709        C716   1.268       .  A
O710        C716   1.271       .  A
C711        C886   1.479       .  S
C712        C868   1.441       .  S
C713        C851   1.474       .  S
C714        C872   1.462       .  S
C715        C855   1.469       .  S
C717        C718   1.406       .  A
C717        C722   1.408       .  A
C717        C845   1.480       .  S
C718        C719   1.390       .  A
C718        H723   1.085       .  S
C719        C720   1.389       .  A
C719        C849   1.428       .  S
C720        C721   1.397       .  A
C720        H724   1.085       .  S
C721        C722   1.409       .  A
C721        C852   1.466       .  S
C722        H725   1.083       .  S
C726        C727   1.413       .  A
C726        C731   1.396       .  A
C726        C841   1.474       .  S
C727        C728   1.415       .  A
C727        H732   1.083       .  S
C728        C729   1.407       .  A
C728        C860   1.490       .  S
C729        C730   1.391       .  A
C729        H733   1.084       .  S
C730        C731   1.389       .  A
C730        C850   1.428       .  S
C731        H734   1.085       .  S
C735        C736   1.413       .  A
C735        C740   1.400       .  A
C735        C835   1.476       .  S
C736        C737   1.413   1_545  A
C736        H741   1.083       .  S
C737        C738   1.409       .  A
C737        C934   1.492       .  S
C738        C739   1.394   1_565  A
C738        H742   1.084       .  S
C739        C740   1.393       .  A
C739        C840   1.438       .  S
C740        H743   1.085       .  S
C744        C745   1.402   1_545  A
C744        C749   1.408       .  A
C744        C831   1.479       .  S
C745        C746   1.404       .  A
C745        H750   1.084       .  S
C746        C747   1.411       .  A
C746        C926   1.480       .  S
C747        C748   1.396   1_565  A
C747        H751   1.084       .  S
C748        C749   1.392       .  A
C749        H752   1.084       .  S
C753        C754   1.400       .  A
C753        C758   1.412       .  A
C753        C864   1.478       .  S
C754        C755   1.392       .  A
C754        H759   1.085       .  S
C755        C756   1.395   1_655  A
C755        C830   1.439   1_655  S
C756        C757   1.412       .  A
C756        H760   1.083       .  S
C757        C758   1.414   1_455  A
C757        C825   1.495       .  S
C758        H761   1.083       .  S
C762        C763   1.409       .  A
C762        C767   1.408   1_655  A
C762        C856   1.483       .  S
C763        C764   1.392   1_655  A
C763        H768   1.084       .  S
C764        C765   1.390       .  A
C765        C766   1.409       .  A
C765        H769   1.084       .  S
C766        C767   1.408       .  A
C766        C821   1.485       .  S
C767        H770   1.084       .  S
Zn771       O775   1.983       .  S
Zn771       O776   2.057       .  S
Zn771       O780   2.061       .  S
Zn771       O787   2.041       .  S
Zn772       O775   1.942       .  S
Zn772       O777   2.007       .  S
Zn772       O779   2.024       .  S
Zn772       O783   2.034       .  S
Zn773       O775   1.963       .  S
Zn773       O778   2.003       .  S
Zn773       O781   2.026       .  S
Zn773       O784   2.021       .  S
Zn774       O775   1.960       .  S
Zn774       O782   2.028       .  S
Zn774       O785   2.020       .  S
Zn774       O786   2.023       .  S
O776        C788   1.278       .  A
O777        C789   1.272       .  A
O778        C790   1.273       .  A
O779        C788   1.274       .  A
O780        C790   1.278       .  A
O781        C789   1.271       .  A
O782        C791   1.274       .  A
O783        C792   1.277       .  A
O784        C791   1.273       .  A
O785        C792   1.272       .  A
O786        C793   1.277       .  A
O787        C793   1.276       .  A
C788        C817   1.447       .  S
C789        C960   1.464       .  S
C790        C826   1.479       .  S
C791        C819   1.438       .  S
C792        C842   1.481       .  S
C793        C836   1.483       .  S
Zn794       O798   1.973       .  S
Zn794       O799   2.023       .  S
Zn794       O803   2.047       .  S
Zn794       O810   2.054       .  S
Zn795       O798   1.976       .  S
Zn795       O800   2.030       .  S
Zn795       O802   2.015       .  S
Zn795       O806   2.040       .  S
Zn796       O798   1.963       .  S
Zn796       O801   2.035       .  S
Zn796       O804   1.996       .  S
Zn796       O807   2.037       .  S
Zn797       O798   1.924       .  S
Zn797       O805   1.965       .  S
Zn797       O808   1.998       .  S
Zn797       O809   1.964       .  S
O799        C811   1.277       .  A
O800        C812   1.275       .  A
O801        C813   1.275       .  A
O802        C811   1.274       .  A
O803        C813   1.276       .  A
O804        C812   1.271       .  A
O805        C814   1.266       .  A
O806        C815   1.273       .  A
O807        C814   1.274       .  A
O808        C815   1.268       .  A
O809        C816   1.267       .  A
O810        C816   1.275       .  A
C811        C971   1.473       .  S
C812        C846   1.468       .  S
C813        C818   1.448       .  S
C814        C832   1.463       .  S
C816        C822   1.467       .  S
C817        C818   1.213       .  T
C819        C820   1.207       .  T
C821        C822   1.343       .  D
C821        H823   1.086       .  S
C822        H824   1.088       .  S
C825        C826   1.349       .  D
C825        H827   1.086       .  S
C826        H828   1.086       .  S
C829        C830   1.205       .  T
C831        C832   1.340       .  D
C831        H833   1.086       .  S
C832        H834   1.088       .  S
C835        C836   1.343       .  D
C835        H837   1.087       .  S
C836        H838   1.087       .  S
C839        C840   1.204       .  T
C841        C842   1.341       .  D
C841        H843   1.087       .  S
C842        H844   1.087       .  S
C845        C846   1.344       .  D
C845        H847   1.086       .  S
C846        H848   1.088       .  S
C849        C850   1.199       .  T
C851        C852   1.339       .  D
C851        H853   1.087       .  S
C852        H854   1.087       .  S
C855        C856   1.344       .  D
C855        H857   1.088       .  S
C856        H858   1.086       .  S
C859        C860   1.351       .  D
C859        H861   1.087       .  S
C860        H862   1.086       .  S
C863        C864   1.344       .  D
C863        H865   1.087       .  S
C864        H866   1.087       .  S
C867        C868   1.209       .  T
C869        C870   1.204       .  T
C871        C872   1.342       .  D
C871        H873   1.087       .  S
C872        H874   1.085       .  S
C875        C876   1.348       .  D
C875        H877   1.086       .  S
C876        H878   1.082       .  S
C879        C880   1.204   1_565  T
C881        C882   1.340       .  D
C881        H883   1.086       .  S
C882        H884   1.087       .  S
C885        C886   1.341       .  D
C885        H887   1.087       .  S
C886        H888   1.087       .  S
C889        C890   1.202       .  T
C891        C892   1.343       .  D
C891        H893   1.087       .  S
C892        H894   1.086       .  S
C895        C896   1.343       .  D
C895        H897   1.087       .  S
C896        H898   1.086       .  S
C899        C900   1.342       .  D
C899        H901   1.088       .  S
C900        H902   1.086       .  S
C903        C904   1.344       .  D
C903        H905   1.087       .  S
C904        H906   1.087       .  S
C907        C908   1.211       .  T
C909        C910   1.212       .  T
C911        C912   1.344       .  D
C911        H913   1.086       .  S
C912        H914   1.088       .  S
C915        C916   1.347       .  D
C915        H917   1.086       .  S
C916        H918   1.087       .  S
C919        C920   1.201       .  T
C921        C922   1.346       .  D
C921        H923   1.088       .  S
C922        H924   1.086       .  S
C925        C926   1.341       .  D
C925        H927   1.087       .  S
C926        H928   1.086       .  S
C929        C930   1.341       .  D
C929        H931   1.086       .  S
C930        H932   1.088       .  S
C933        C934   1.348       .  D
C933        H935   1.088       .  S
C934        H936   1.086       .  S
C937        C938   1.210       .  T
C939        C940   1.205   1_556  T
C941        C942   1.341       .  D
C941        H943   1.088       .  S
C942        H944   1.086       .  S
C945        C946   1.343       .  D
C945        H947   1.086       .  S
C946        H948   1.088       .  S
C949        C950   1.345       .  D
C949        H951   1.086       .  S
C950        H952   1.088       .  S
C953        C954   1.346       .  D
C953        H955   1.086       .  S
C954        H956   1.087       .  S
C957        C958   1.202   1_455  T
C959        C960   1.345       .  D
C959        H961   1.086       .  S
C960        H962   1.085       .  S
C963        C964   1.342       .  D
C963        H965   1.087       .  S
C964        H966   1.086       .  S
C967        C968   1.344       .  D
C967        H969   1.086       .  S
C968        H970   1.088       .  S
C971        C972   1.340       .  D
C971        H973   1.087       .  S
C972        H974   1.086       .  S
C975        C976   1.200       .  T
